17
Isomer 1H
S         -0.02203       -0.37950        0.90914
O         -0.35687        0.59863       -0.19347
O          0.79237        0.20022        2.03917
O         -1.51392       -0.70373        1.55971
O          0.53761       -1.67384        0.37940
H         -1.33236       -1.07711        2.44106
H          2.51503        0.20012       -0.83912
N          1.85254       -0.18672       -1.54987
H          0.93056        0.25882       -1.31112
H          1.69508       -1.16856       -1.28255
C          2.29281        0.00810       -2.95004
H          1.54381       -0.41875       -3.62761
H          3.25920       -0.48729       -3.10336
H          2.39375        1.08272       -3.14388
O          3.17635        0.68919        0.71901
H          2.40585        0.52812        1.31815
H          3.48323        1.57356        0.95539
