17
Isomer 1F
S         -0.32238       -0.48555        0.75023
O          1.09960       -1.00904        0.60129
O         -0.98591       -0.24874       -0.58421
O         -1.19275       -1.70310        1.46540
O         -0.40928        0.64453        1.72632
H         -1.41817       -2.31615        0.74266
H          1.92619        0.43490        0.71429
N          2.09203        1.48121        0.74389
H          1.61554        1.78330        1.59933
H          1.52940        1.84802       -0.05968
C          3.52147        1.86484        0.67723
H          3.61513        2.95728        0.70815
H          3.93913        1.48539       -0.26288
H          4.05680        1.42020        1.52466
O          0.44899        1.95593       -1.43299
H         -0.14033        1.17982       -1.26179
H         -0.16146        2.69317       -1.56190
