17
Isomer 1D
S          1.86139        1.04756        0.44986
O          2.49186       -0.19873        1.05374
O          0.93480        1.80107        1.33249
O          3.19441        2.02864        0.22048
O          1.34174        0.75676       -0.94458
H          2.87083        2.92728        0.40907
H          2.03006       -3.05462       -0.27128
N          1.95051       -2.11788       -0.66912
H          2.20057       -1.38875        0.07840
H          0.95328       -1.93216       -0.90934
C          2.83331       -1.93390       -1.85461
H          2.70350       -0.89872       -2.19016
H          2.54684       -2.63748       -2.64579
H          3.87415       -2.10260       -1.55335
O         -0.59834       -1.10457       -1.13053
H         -0.12577       -0.24385       -1.03312
H         -1.35916       -1.04404       -0.53916
