17
Isomer 1G
S          0.96625        1.83782        0.97916
O         -0.14750        1.63057       -0.01957
O          1.80823        0.56963        1.11395
O          1.95402        2.92106        0.16382
O          0.61801        2.47464        2.27007
H          2.42348        3.40695        0.86485
H          0.75333       -0.53172       -1.57597
N          0.92025       -1.08920       -0.71458
H          1.36313       -0.41984        0.00608
H          1.57557       -1.84365       -0.92273
C         -0.36651       -1.59868       -0.16421
H         -0.16376       -2.14597        0.76407
H         -0.85324       -2.25518       -0.89592
H         -0.99104       -0.72350        0.04803
O          0.46365        0.91027       -2.54313
H          0.22035        1.43145       -1.74241
H         -0.02721        1.29634       -3.27749
