17
Isomer 1R
S          1.70804       -1.70308        0.86515
O          2.28443       -1.91162       -0.51527
O          1.87716       -2.78310        1.86220
O          2.64963       -0.40686        1.40790
O          0.29448       -1.13446        0.77643
H          2.66082       -0.49593        2.37718
H          0.43593       -1.21118       -2.24204
N          0.28426       -0.33101       -1.74338
H          1.18104        0.19609       -1.81445
H          0.20116       -0.60267       -0.70925
C         -0.88943        0.42340       -2.24305
H         -0.99277        1.33743       -1.64611
H         -1.79005       -0.19131       -2.12638
H         -0.74753        0.68438       -3.29898
O          2.94581        0.42861       -1.76297
H          3.00336       -0.38483       -1.21149
H          3.42163        1.09814       -1.25449
