17
Isomer 1J
S          0.01439        0.37087       -2.14978
O          1.16867        0.64800       -1.20949
O         -0.29511       -1.11828       -2.19629
O         -1.32752        0.96761       -1.33200
O          0.04525        1.07044       -3.45527
H         -1.51602        1.82001       -1.76246
H          0.47225       -1.81608       -1.03889
N          0.97928       -2.18011       -0.16138
H          1.97523       -1.89963       -0.26322
H          0.91599       -3.19844       -0.13024
C          0.36580       -1.54101        1.03673
H          0.88869       -1.86733        1.94407
H         -0.69336       -1.82089        1.08376
H          0.45732       -0.45715        0.90251
O          3.31784       -0.92997       -0.87196
H          4.15161       -0.50894       -0.63308
H          2.70670       -0.20209       -1.13502
