17
Isomer 1Q
S         -0.02434       -0.76328        0.06546
O          0.09028       -0.91630       -1.44883
O          1.34392       -0.64714        0.69231
O         -0.61052        0.81051        0.28255
O         -1.01225       -1.66084        0.70389
H         -1.57680        0.70896        0.34158
H          3.16929       -0.84266       -1.39876
N          2.58428       -0.13289       -1.84489
H          2.63205        0.71845       -1.24172
H          1.57192       -0.47816       -1.75772
C          2.97370        0.12868       -3.25153
H          2.29221        0.88383       -3.66121
H          2.88108       -0.79762       -3.83117
H          4.00579        0.49766       -3.29485
O          2.45128        1.79481        0.14607
H          1.97262        1.06396        0.59999
H          1.82549        2.53102        0.16983
