300
xyz
O              -39.071737    -9.803596    21.647884
H              -39.016260   -10.288190    22.451479
H              -39.898625   -10.026546    21.260297
O              -42.398069    -9.159797    23.037883
H              -41.870726    -9.712174    23.586029
H              -43.292853    -9.387612    23.214339
O              -37.006868    -9.123430    19.623848
H              -37.036998    -9.014022    20.557013
H              -37.894992    -9.249672    19.342824
O              -44.190652   -12.988135    28.320339
H              -44.744005   -12.234346    28.224016
H              -44.089762   -13.126685    29.244623
O              -38.908984   -10.163761    28.551269
H              -39.617430   -10.180224    29.168933
H              -39.075109   -10.857130    27.938638
O              -37.881142    -9.693626    15.384266
H              -37.130836    -9.146385    15.238519
H              -38.156143    -9.536410    16.269327
O              -37.491543   -12.469395    14.509867
H              -36.714919   -12.745007    14.962157
H              -37.602510   -11.556642    14.705426
O              -38.384062    -4.771589    18.830984
H              -39.114583    -5.363187    18.835918
H              -38.229268    -4.548846    17.930929
O              -37.787554    -5.085474    23.919261
H              -38.169710    -5.699890    23.319157
H              -37.881922    -5.458668    24.776871
O              -32.956607   -15.720935    16.642525
H              -32.653869   -14.831320    16.667228
H              -32.219100   -16.245055    16.387462
O              -38.700716    -6.921055    21.944302
H              -39.253009    -6.598879    21.255208
H              -38.867096    -7.844066    22.007883
O              -37.415357    -6.168678    26.643513
H              -38.075303    -6.390951    27.274972
H              -36.880158    -5.506100    27.041290
O              -35.919356   -15.792857    16.065944
H              -35.034708   -16.110565    16.054418
H              -35.865606   -14.863185    16.194379
O              -42.719603   -13.478822    23.553920
H              -42.876346   -13.200023    22.669965
H              -42.425961   -14.370351    23.502686
O              -43.626311    -6.913008    26.748310
H              -42.822355    -6.550734    26.422599
H              -43.459598    -7.823451    26.912551
O              -42.045562    -7.228439    17.441172
H              -41.371296    -6.592406    17.284642
H              -42.192320    -7.666317    16.622392
O              -41.267962    -4.135100    21.650050
H              -40.421298    -3.726970    21.666311
H              -41.328005    -4.652540    22.432562
O              -45.101193    -8.948666    16.724811
H              -45.441866    -8.181236    17.147502
H              -44.534787    -9.365608    17.348524
O              -43.200707   -12.400645    20.910292
H              -42.450713   -12.405299    20.343580
H              -43.601216   -11.555753    20.813212
O              -36.225481    -5.331787    20.762164
H              -36.848485    -5.348695    20.058421
H              -35.385321    -5.179441    20.368974
O              -45.407984   -12.663370    24.514548
H              -45.945230   -13.274548    24.043906
H              -44.520313   -12.953914    24.408248
O              -41.955052   -15.929838    25.175464
H              -42.652616   -15.537460    25.668534
H              -41.500809   -16.501561    25.767470
O              -42.899482    -9.825377    27.074581
H              -42.396757   -10.210345    26.379785
H              -43.736183   -10.253770    27.065344
O              -35.412625    -8.029232    15.222824
H              -34.550252    -8.393651    15.307602
H              -35.312982    -7.216948    14.760287
O              -35.893280    -7.980036    22.119948
H              -36.229289    -7.147672    21.840768
H              -36.159470    -8.086728    23.015177
O              -42.754576   -14.328379    30.463275
H              -42.834578   -15.172386    30.057162
H              -42.652469   -14.485897    31.384381
O              -33.236767   -12.896733    20.049500
H              -33.651398   -13.710852    19.828217
H              -32.876831   -13.007928    20.910753
O              -36.311573    -3.750672    27.877597
H              -36.189755    -3.482755    28.770377
H              -36.979441    -3.192790    27.522076
O              -31.762563    -6.833076    23.339749
H              -30.851523    -6.692753    23.524115
H              -32.091482    -6.022370    22.995886
O              -39.496551    -9.095380    18.005343
H              -39.519352    -8.228892    17.641537
H              -40.225737    -9.154424    18.595661
O              -43.171866   -16.033010    18.798658
H              -42.671109   -16.175962    19.581271
H              -42.555485   -15.799755    18.128329
O              -41.697993   -15.504402    21.398086
H              -40.905525   -15.966972    21.602291
H              -41.440430   -14.730600    20.930575
O              -34.056125    -5.003354    26.247621
H              -34.237989    -4.573544    25.431616
H              -34.591902    -4.581568    26.894702
O              -40.815888   -13.369669    19.569422
H              -40.871971   -13.858096    18.768193
H              -39.911870   -13.133915    19.673571
O              -35.200959    -3.724545    23.780031
H              -35.577688    -2.871358    23.897595
H              -35.919851    -4.316476    23.651638
O              -41.287979    -3.258154    27.284568
H              -41.328817    -3.075153    28.205718
H              -42.177329    -3.332693    26.989313
O              -43.231322   -10.800200    18.189111
H              -42.585610   -11.146843    17.600408
H              -43.923327   -11.435282    18.227509
O              -35.537663    -7.275366    18.044875
H              -36.052824    -7.758582    18.665186
H              -35.776173    -7.596979    17.194374
O              -36.259686    -8.426945    25.230309
H              -36.607004    -7.649947    25.629457
H              -35.324318    -8.333671    25.238079
O              -32.934711   -14.257000    22.621065
H              -33.748961   -14.706641    22.485071
H              -32.287567   -14.921135    22.775350
O              -41.672025    -9.220562    20.161912
H              -42.358416    -9.596491    19.641124
H              -42.020986    -9.121706    21.029166
O              -40.629451    -6.324235    19.800897
H              -41.162481    -5.669198    20.213789
H              -41.189500    -7.063299    19.646611
O              -34.254110   -15.464314    19.356019
H              -35.172345   -15.662186    19.392975
H              -33.949223   -15.774891    18.522796
O              -45.255285   -14.362860    20.014565
H              -44.862251   -15.051453    19.509552
H              -44.547062   -13.874550    20.393575
O              -37.733596   -15.774404    26.881812
H              -37.462464   -14.967955    27.281563
H              -36.984084   -16.108047    26.422913
O              -44.382147   -15.328328    26.667111
H              -44.486671   -14.532374    27.156199
H              -45.146096   -15.408926    26.125299
O              -41.099001   -11.180171    16.275093
H              -40.360502   -10.731369    16.645053
H              -40.757089   -11.941185    15.841932
O              -34.481935    -5.258913    14.602851
H              -33.755030    -5.264297    15.198884
H              -34.196096    -4.789460    13.840234
O              -32.389838    -5.641364    16.508162
H              -32.393989    -5.289847    17.379995
H              -32.334545    -6.575363    16.599063
O              -39.156452   -16.699763    22.102239
H              -38.406301   -16.629834    21.540050
H              -38.931145   -16.258629    22.901183
O              -46.107781    -8.362142    25.698227
H              -45.866794    -8.570871    24.813902
H              -45.648987    -7.571818    25.918616
O              -33.411648    -5.841621    19.430321
H              -34.049682    -6.238270    18.865293
H              -33.090915    -6.525734    19.989602
O              -39.274813    -6.624389    16.412969
H              -39.527965    -6.938833    15.564020
H              -38.481159    -6.136085    16.289093
O              -33.142412    -8.285785    21.161815
H              -34.031911    -8.299030    21.465610
H              -32.610431    -8.076195    21.907967
O              -35.264161   -15.963469    25.351473
H              -35.383435   -15.920386    24.420027
H              -34.676879   -15.264715    25.576234
O              -41.500187    -9.151860    29.504470
H              -41.992955    -9.387066    28.739269
H              -42.106023    -9.160919    30.223187
O              -40.044275   -13.583651    14.842019
H              -39.140756   -13.355922    14.717652
H              -40.389284   -13.775438    13.988871
O              -35.308438   -12.948517    16.466830
H              -34.374545   -12.845470    16.436847
H              -35.598997   -12.508108    17.244834
O              -41.348941   -13.642609    27.847070
H              -41.351476   -13.843182    28.765459
H              -42.202008   -13.301713    27.647717
O              -32.364026   -12.869449    17.212179
H              -32.444824   -12.807327    18.146677
H              -31.760018   -12.197397    16.952958
O              -44.435578    -7.415143    19.189130
H              -43.660913    -7.294369    18.670494
H              -44.474590    -6.686113    19.781302
O              -33.024652    -8.515979    16.941519
H              -33.709068    -8.298347    17.548054
H              -32.522891    -9.202135    17.342893
O              -32.850349    -4.477160    22.170010
H              -33.079312    -4.498808    21.258538
H              -33.598205    -4.132169    22.623187
O              -33.987411   -13.185715    25.258258
H              -33.595141   -13.227181    24.404983
H              -33.652524   -12.408030    25.666584
O              -38.456119    -2.172605    26.815687
H              -39.349104    -2.466277    26.818825
H              -38.269190    -1.901530    25.935203
O              -42.295857    -6.303684    23.440032
H              -41.801743    -6.151924    24.225204
H              -42.235550    -7.224859    23.262623
O              -35.690145   -11.602502    19.027417
H              -35.940038   -10.706890    19.165649
H              -34.904179   -11.738337    19.524891
O              -37.951347   -13.157573    20.068145
H              -37.296648   -12.619349    19.661501
H              -37.877090   -13.011703    20.993824
O              -39.253579   -14.970502    24.483381
H              -38.868993   -15.236598    25.298833
H              -40.184266   -15.046070    24.591942
O              -33.467331    -7.785205    25.571522
H              -32.899310    -7.605554    24.844368
H              -33.583826    -6.969937    26.024778
O              -39.271582   -12.237918    26.534272
H              -38.483967   -12.740068    26.428521
H              -39.899389   -12.810769    26.935986
O              -33.350394   -10.657024    26.615825
H              -34.010511   -10.585891    27.281303
H              -33.223531    -9.790407    26.274422
O              -37.645163   -13.131544    22.938253
H              -37.538164   -12.308385    23.379427
H              -38.271557   -13.621578    23.439424
O              -36.561662   -13.097296    26.688328
H              -35.914850   -13.286473    26.032950
H              -36.297985   -12.292692    27.096691
O              -40.251905   -17.269123    27.247282
H              -39.472639   -16.744601    27.283302
H              -39.967478   -18.164181    27.206695
O              -35.647615   -15.221798    22.444201
H              -35.950456   -15.666643    21.673438
H              -36.216165   -14.482926    22.564591
O              -32.232614   -10.221715    19.145194
H              -32.554377   -11.027798    19.506265
H              -32.392865    -9.558726    19.792064
O              -38.036341   -10.592496    24.330763
H              -38.437624   -10.791625    25.157197
H              -37.411574    -9.910048    24.496909
O              -36.801774    -5.039182    16.404600
H              -36.273075    -4.844454    15.652115
H              -36.225546    -5.420160    17.042167
O              -36.130776   -10.333010    27.651645
H              -36.780340   -10.136762    28.302205
H              -36.284767    -9.742559    26.936573
O              -43.904836   -16.692639    22.954771
H              -43.324221   -16.776268    23.689323
H              -43.374717   -16.421984    22.227176
O              -40.070810    -7.978811    14.009569
H              -39.596050    -8.786467    14.086836
H              -40.983071    -8.203253    14.042417
O              -40.663304   -15.151543    17.260028
H              -40.562639   -14.711909    16.435248
H              -39.941924   -15.750046    17.331309
O              -40.899698    -5.886817    25.951085
H              -40.812318    -5.043045    26.356163
H              -40.374621    -6.479743    26.457453
O              -43.883682    -5.226954    21.132269
H              -43.484672    -4.421034    20.858486
H              -43.347437    -5.566157    21.825852
O              -46.223903   -14.887384    22.887957
H              -46.312831   -14.725867    21.966177
H              -45.559484   -15.546136    22.978879
O              -45.163901    -9.953124    23.369480
H              -45.349188   -10.807105    23.715975
H              -45.367731    -9.989031    22.452507
O              -42.793369   -16.689668    28.845623
H              -43.404339   -16.545594    28.145885
H              -41.967267   -16.882921    28.440798
O              -44.022802    -3.949084    26.728542
H              -44.199504    -4.805669    27.073089
H              -44.405747    -3.924228    25.870399
O              -42.655499    -8.962651    15.061529
H              -43.586355    -8.928347    15.188036
H              -42.374487    -9.799170    15.385477
O              -37.840956    -2.191311    23.944638
H              -38.054914    -3.104673    23.884084
H              -38.144191    -1.794534    23.148214
O              -45.590031   -10.948269    26.907432
H              -45.966341   -10.115457    26.687230
H              -45.726730   -11.506140    26.163276
O              -44.999647    -9.978112    20.495150
H              -45.498748   -10.469123    19.867869
H              -44.843516    -9.135490    20.108773
O              -38.218321   -16.931444    17.307654
H              -37.482946   -16.612775    16.816383
H              -38.369190   -17.812788    17.017576
O              -45.912929   -11.983140    18.544559
H              -46.568972   -11.944906    17.872383
H              -45.988185   -12.832362    18.940582
O              -41.487126   -11.242150    24.877886
H              -41.884170   -12.008474    24.505357
H              -40.657399   -11.515489    25.225038
O              -38.426998    -3.304571    21.351591
H              -38.476311    -3.421164    20.420114
H              -37.744160    -3.875229    21.654504
O              -44.959839    -5.053739    24.174808
H              -44.191414    -5.575375    24.029570
H              -45.292148    -4.828677    23.324753
O              -37.175866   -15.915080    19.889634
H              -37.549198   -16.442040    19.206545
H              -37.550212   -15.057701    19.797766
O              -39.591141    -7.401551    28.064071
H              -40.258058    -7.391235    28.726482
H              -39.261968    -8.281520    28.032842
