36
D2d-1-R.xyz
O     1.546562    -0.879779     2.160457
H     1.940889    -0.676703     1.269795
H     2.242899    -1.316951     2.665629
O    -0.847083    -1.923546     0.982103
H    -0.073392    -1.700775     1.535116
H    -1.497174    -1.225988     1.186064
O     2.295443    -0.242301    -0.339371
H     1.641395    -0.696326    -0.905173
H     2.099697     0.705405    -0.459396
O     0.004448    -1.485386    -1.528131
H    -0.353211    -1.759301    -0.641004
H    -0.067389    -2.263188    -2.094773
O    -1.116917     1.091913    -1.389963
H    -0.284054     1.508182    -1.064083
H    -0.836894     0.214952    -1.716292
O    -2.190054     0.579241     1.095926
H    -1.915161     0.765975     0.166832
H    -2.869616     1.255409     1.282210
O     1.042989     2.304897    -0.196419
H     0.770964     2.114367     0.732773
H     0.883781     3.263104    -0.298093
O     0.102925     1.533287     2.276512
H    -0.733134     1.124211     1.949730
H     0.664661     0.772351     2.520209
O    -0.184813     4.845350    -0.125323
H     0.107462     5.764139    -0.167581
H    -0.482382     4.697076     0.812756
O    -2.526219     3.557866    -1.158426
H    -1.732378     4.100852    -0.986652
H    -2.168164     2.717922    -1.500571
O    -1.080038     4.125726     2.299068
H    -0.594338     3.321285     2.559267
H    -1.990900     3.810921     2.138544
O    -3.533460     3.056312     1.277300
H    -3.277590     3.286603     0.343530
H    -4.446374     3.351405     1.381582
