36
D2d-1-L.xyz
O     1.485283    -0.699759     1.936056
H     1.843881    -0.426171     1.058833
H     2.002419    -1.494272     2.171373
O    -0.894214    -1.710163     0.983561
H    -0.094383    -1.338705     1.425442
H    -1.590165    -1.043887     1.144340
O     2.183718     0.050279    -0.621306
H     1.389450    -0.331879    -1.064104
H     2.026543     1.014318    -0.633165
O    -0.071588    -1.196377    -1.596190
H    -0.436783    -1.459185    -0.718461
H     0.267274    -2.029867    -1.976589
O    -1.337497     1.333400    -1.346333
H    -0.547391     1.873622    -1.151485
H    -0.977170     0.507748    -1.719622
O    -2.314571     0.718661     1.079456
H    -2.069351     0.979077     0.150939
H    -3.229399     1.000647     1.201094
O     1.006460     2.581979    -0.270749
H     0.721026     2.397351     0.664403
H     1.290114     3.504228    -0.284638
O     0.124314     1.785131     2.138213
H    -0.783561     1.470516     1.962507
H     0.619425     0.975727     2.363129
O     3.479188    -2.470491    -0.793500
H     3.312673    -1.509717    -0.783918
H     3.408850    -2.736036     0.143833
O     1.338383    -3.605641    -1.952371
H     2.198285    -3.233716    -1.617066
H     1.569861    -4.190051    -2.684563
O     2.678248    -3.247869     1.845237
H     3.079543    -3.868611     2.465605
H     1.858022    -3.695253     1.503064
O     0.440688    -4.201111     0.703089
H     0.628107    -4.160456    -0.254631
H    -0.251287    -3.527918     0.840476
