45
Coordinates from ORCA-job ofinal-10-31055
  O      -1.286135      1.754274      0.318297
  H      -0.323430      1.538915      0.350807
  H      -1.331780      2.551739     -0.246342
  O       1.147166     -1.230630     -1.271178
  H       0.269465     -1.669078     -1.308972
  H       1.255672     -0.773191     -2.131473
  O       2.619399      0.153376      2.541223
  H       3.270159      0.601576      3.094696
  H       1.825815     -0.013051      3.120033
  O      -2.645435      0.124719     -1.614513
  H      -2.321824     -0.791886     -1.539541
  H      -2.209823      0.588973     -0.872925
  O       2.451872     -2.291927      1.040793
  H       2.741291     -1.471916      1.482397
  H       2.153706     -2.008967      0.154833
  O       1.294391      0.542490     -3.450040
  H       1.542978      1.376480     -2.962663
  H       1.901234      0.491291     -4.199255
  O       1.743177      2.701628     -1.930563
  H       1.763331      2.252158     -1.061232
  H       0.905910      3.204339     -1.902304
  O      -1.419330      1.629667     -3.549182
  H      -0.563213      1.187144     -3.693431
  H      -1.917759      1.002902     -2.973000
  O       0.523551     -3.091648      2.715323
  H       1.250576     -2.891062      2.065652
  H       0.729848     -3.958689      3.084949
  O      -0.973242      3.584716     -1.806084
  H      -1.385421      4.415895     -2.071744
  H      -1.198090      2.926977     -2.526116
  O       1.329601      1.031774      0.266167
  H       1.843054      0.843002      1.079113
  H       1.269481      0.174976     -0.217842
  O      -1.376520     -2.388212     -1.126936
  H      -1.597823     -2.436508     -0.155357
  H      -1.640779     -3.238646     -1.498748
  O      -2.004643      0.332767      2.497346
  H      -2.779300      0.644187      2.982107
  H      -1.876584      0.981533      1.765043
  O      -1.882279     -2.352965      1.477288
  H      -2.028507     -1.447989      1.813767
  H      -1.093632     -2.675240      1.957738
  O       0.394642     -0.495348      3.852956
  H      -0.421387     -0.130494      3.459035
  H       0.360114     -1.450023      3.649257
