6
2-Cs
O         -1.62893       -0.04138        0.37137
H         -0.69803       -0.09168        0.09337
H         -2.06663       -0.73498       -0.13663
O          1.21457        0.03172       -0.27623
H          1.44927        0.91672       -0.58573
H          1.72977       -0.08038        0.53387
