9
3-UUD
O         -1.38183       -0.79188       -0.17297
H         -0.45433       -1.10048       -0.23187
H         -1.81183       -1.39808        0.44213
O          1.41257       -0.77648       -0.31737
H          1.22807        0.17372       -0.17317
H          1.93037       -1.04028        0.45363
O          0.01887        1.60382        0.21583
H         -0.73003        0.98002        0.13523
H         -0.21183        2.34962       -0.35147
