9
3-UUU
O         -1.13187       -1.11979       -0.35833
H         -1.76867       -1.58319        0.19837
H         -1.23847       -0.17309       -0.13963
O          1.56013       -0.35109       -0.32593
H          0.77843       -0.93769       -0.31313
H          2.23183       -0.81009        0.19197
O         -0.44827        1.56921        0.01767
H         -0.42977        2.22941        0.72047
H          0.44663        1.17631        0.00857
