15
5-CYC
O         -1.25876       -1.92002       -0.34906
H         -1.63856       -1.06322       -0.04126
H         -1.79946       -2.17022       -1.10806
O         -2.21496        0.50378        0.45924
H         -1.49466        1.17408        0.52224
H         -2.69616        0.57528        1.29204
O         -0.10936        2.26268        0.56254
H          0.13574        2.70198        1.38584
H          0.71374        1.79938        0.27624
O          2.12914        0.90148       -0.20406
H          1.92084       -0.04832       -0.37116
H          2.57754        1.19728       -1.00576
O          1.43694       -1.69192       -0.67766
H          0.46344       -1.81652       -0.57636
H          1.83454       -2.40572       -0.16476
