15
5-FR-B
O         -1.32243        0.59037        0.90663
H         -1.45523       -0.20793        0.33723
H         -2.04913        0.57577        1.54073
O         -1.39863       -1.63223       -0.64977
H         -0.44823       -1.89543       -0.67967
H         -1.64863       -1.52953       -1.57657
O          1.30577       -2.00243       -0.72337
H          1.80877       -2.69053       -0.27147
H          1.55767       -1.16063       -0.27377
O          1.60977        0.35717        0.62673
H          1.46147        1.16127        0.09423
H          0.78327        0.32217        1.13713
O          0.16347        2.58237       -0.45147
H          0.16867        3.44907       -0.02697
H         -0.53653        2.08057        0.01033
