15
5-FR-A
O          1.56145       -1.74294       -0.59077
H          0.59395       -1.91244       -0.57957
H          1.76525       -1.58834       -1.52187
O         -1.21465       -1.96274       -0.39767
H         -1.43345       -1.10404        0.01993
H         -1.52545       -2.62574        0.23163
O         -1.32745        0.56796        0.84243
H         -1.80735        0.79696        1.64793
H         -0.36505        0.53266        1.09613
O          1.34295        0.58056        0.97163
H          1.32735        1.26686        0.28053
H          1.58425       -0.23524        0.48163
O          0.12675        2.29596       -1.02307
H          0.01225        3.24316       -0.87467
H         -0.64075        1.88736       -0.58427
