18
6-BAG
O         -0.74347        1.69528        0.24763
H          0.13813        1.65928       -0.21687
H         -1.01187        2.62118        0.19903
O         -0.11487       -2.03692        0.31843
H         -0.03377       -1.51552        1.13993
H         -0.92247       -1.66862       -0.08997
O          1.61483        1.44548       -0.98307
H          2.39553        1.68068       -0.46577
H          1.73543        0.48028       -1.17757
O          1.87853       -1.21202       -1.31017
H          1.78343       -1.65672       -2.16087
H          1.16953       -1.59782       -0.73297
O          0.01793       -0.02932        2.35453
H         -0.48047        0.02188        3.17893
H         -0.33587        0.68908        1.79423
O         -2.16277       -0.48102       -0.87327
H         -1.81777        0.36818       -0.53077
H         -3.10997       -0.46332       -0.69137
