18
6-CB-2
O         -2.23515        1.40378        0.82251
H         -2.34935        1.54538        1.77021
H         -2.25655        0.42508        0.71121
O         -2.18785       -1.30242        0.50051
H         -1.47275       -1.68642       -0.05879
H         -2.95655       -1.86462        0.35091
O         -0.15595       -2.36052       -0.98359
H          0.74085       -2.05742       -0.70449
H         -0.14335       -2.30032       -1.94619
O         -0.00845        2.54928       -0.25239
H         -0.26005        2.78758       -1.15259
H         -0.81925        2.14018        0.13421
O          2.31915       -1.49432       -0.23289
H          2.67645       -1.90722        0.56271
H          2.34295       -0.52742       -0.04459
O          2.28495        1.17828        0.30441
H          1.46825        1.68238        0.07941
H          3.01265        1.78878        0.13951
