37
Mol-B-prin-aligned_to-Mol-A-prin.xyz
O -3.26482233636 -1.21930742604 -1.57615393517
C -3.11887138433 -0.44823671431 -0.655205360544
O -3.19188668029 -0.839148743073 0.61982073814
H -2.9629277571 -0.0710992692429 1.19977144057
C -2.84992018996 1.03775820375 -0.863304756367
H -2.87490264325 1.23268154985 -1.92931918693
H -3.63795222589 1.61076480992 -0.370363644626
N -1.56094748172 1.46584122567 -0.349305453112
H -0.812943416048 1.75582343844 -0.979308813433
C -1.33498259149 1.59994268131 0.963690231564
O -2.15499108302 1.27797506827 1.83569420516
C -0.00201409164433 2.2380169148 1.33167562662
H 0.00795825006541 3.25598934516 0.938603516915
H 0.0439596732795 2.27309553354 2.414674197
N 1.16702242679 1.54202391059 0.836752039925
H 1.75502776257 0.99908903902 1.45480418199
C 1.5810489636 1.62194817007 -0.439244096263
O 0.938049424964 2.18186130252 -1.3352987137
C 2.91007998435 0.947975433961 -0.730165557923
N 3.68405737982 0.789090689214 0.498863582976
H 3.39507451707 1.57893963116 -1.48019921389
H 4.06801854721 1.68412471973 0.782808835021
H 4.47708328644 0.182106932107 0.324925001743
C 2.64314437708 -0.421080454083 -1.38107442787
H 3.61216565457 -0.892058715564 -1.56701861566
H 2.18216009433 -0.236166084818 -2.35209820055
C 1.76315831156 -1.32705442225 -0.568030337128
C 2.25215674113 -2.00195690753 0.556028901191
H 3.29214651934 -1.89689956612 0.835045417234
C 1.41716853302 -2.81593287685 1.31806749188
H 1.81316710437 -3.32985705125 2.18411314568
C 0.0811827380133 -2.97900672263 0.957048273064
H -0.567807773451 -3.61598856086 1.54207857466
C -0.415814602333 -2.33110488116 -0.172009231009
H -1.44280251558 -2.47316338792 -0.474022817955
C 0.420172837081 -1.50412795201 -0.921048722485
H 0.0301752017561 -1.00720455598 -1.80109302985
