37
Mol-B-aligned_to-Mol-A.xyz
O -3.265 1.219 -1.576
C -3.119 0.448 -0.655
O -3.192 0.839 0.62
H -2.963 0.071 1.2
C -2.85 -1.038 -0.863
H -2.875 -1.233 -1.929
H -3.638 -1.611 -0.37
N -1.561 -1.466 -0.349
H -0.813 -1.756 -0.979
C -1.335 -1.6 0.964
O -2.155 -1.278 1.836
C -0.002 -2.238 1.332
H 0.008 -3.256 0.939
H 0.044 -2.273 2.415
N 1.167 -1.542 0.837
H 1.755 -0.999 1.455
C 1.581 -1.622 -0.439
O 0.938 -2.182 -1.335
C 2.91 -0.948 -0.73
N 3.684 -0.789 0.499
H 3.395 -1.579 -1.48
H 4.068 -1.684 0.783
H 4.477 -0.182 0.325
C 2.643 0.421 -1.381
H 3.612 0.892 -1.567
H 2.182 0.236 -2.352
C 1.763 1.327 -0.568
C 2.252 2.002 0.556
H 3.292 1.897 0.835
C 1.417 2.816 1.318
H 1.813 3.33 2.184
C 0.081 2.979 0.957
H -0.568 3.616 1.542
C -0.416 2.331 -0.172
H -1.443 2.473 -0.474
C 0.42 1.504 -0.921
H 0.03 1.007 -1.801
