10

Ne          1.0542091531       -0.2108624491        0.5680710481
Ne         0.1923889073        0.6289416106       -1.0227125046
Ne         0.2992711929        0.5934605346        0.8747047969
Ne         0.4872799293       -0.9828072330       -0.0592913953
Ne        -0.1993722088        1.0793656577       -0.0457144540
Ne        -0.0113638006       -0.4969000400       -0.9797094772
Ne         0.0250945513       -0.5050072403        0.8573317807
Ne        -0.7588555203        0.2589177821       -0.5897188552
Ne        -0.7092800042        0.2605048345        0.5217834017
Ne        -0.5949645415       -0.6979178086       -0.0461169915
