100
23423
Ne         -2.3978548406        1.5859680524       -0.8011471774
Ne         2.1112181554        0.2511606182        2.0943683354
Ne         0.3245239882        2.5930529017        0.6900016391
Ne        -0.9461679157        1.3917146376        2.1150022070
Ne         2.3472704464       -1.5401130037        0.7947134362
Ne        -2.0707734881       -0.2322435615       -2.0423303019
Ne        -0.6735737047       -2.5986308037       -0.1490313166
Ne         1.2069996003       -0.8206944048       -2.2579652410
Ne        -0.6448524332        1.4744695037       -2.2102460732
Ne        -2.6933058580       -0.4621905985        0.0869638203
Ne         0.6409268011       -1.4492297769        2.2280172339
Ne         2.6893762419        0.4874231912       -0.0691695413
Ne         0.4594019590        1.2779574482       -2.2805315344
Ne         2.3039117293        0.7319051653       -1.0960827928
Ne        -2.2219607285       -1.2570649345        0.7264431222
Ne        -0.3774461551       -1.8031048570        1.9108715842
Ne         1.2758361338        0.9633063883        1.9497921793
Ne        -1.7145080394        1.8485257494        0.0295390032
Ne        -2.5614723986        0.5642700475       -0.3596472881
Ne        -1.5304090097        1.5390648325       -1.5159220104
Ne         2.4155576817        0.3709456644        1.0179977358
Ne         1.3844963141       -0.6038413414        2.1742540293
Ne         1.3930769100        1.0117489963       -1.7029466876
Ne        -1.3100394777       -1.5438354580        1.3284165146
Ne        -0.3130017379        2.0063273103        1.4123128584
Ne        -2.2349779560        0.6762049998       -1.4228845470
Ne         2.2301880381       -0.6456097904        1.4444260156
Ne         0.1679460186        1.1874807756        2.0524015207
Ne         0.8095728647        1.7940871099        1.3328577209
Ne        -1.3445731720        1.6352290894        1.0811425992
Ne        -0.7029438671        2.2418384799        0.3615954041
Ne         2.5202480731       -0.5266656790        0.3630856169
Ne        -1.3588512871        0.6216721185       -2.1278846253
Ne         1.4952164833       -1.4957545946        1.5125820247
Ne        -2.3838905823       -0.3474267551       -0.9783680053
Ne         0.8351010972        0.2288505132       -2.2707431315
Ne         1.7561925047       -0.0438335379       -1.6792661294
Ne        -1.4482685092       -1.9298989543        0.2899035185
Ne        -0.5271725553       -2.2025760347        0.8813694905
Ne         0.1776139984        2.1866076383       -0.3534426184
Ne        -1.4985974636        0.6018812759        1.5263217818
Ne         1.1064781616        1.9116287480        0.2430250863
Ne        -0.5697301807        0.3269060752        2.1227840192
Ne        -1.6102238299       -1.0268302743       -1.4147286126
Ne        -0.9790915438       -0.4301418888       -2.1225020172
Ne         1.3427637165       -1.9010015888        0.4815131734
Ne         1.9738871667       -1.3043228929       -0.2262455622
Ne        -1.1449618352       -1.8153304370       -0.7838774276
Ne         0.3363069717       -2.2538354183        0.1672993097
Ne         1.5942347604       -1.0645620628       -1.2433776763
Ne         0.1129732757       -0.6260487770       -2.1945671404
Ne         0.5808611697       -1.4194043674       -1.5589092460
Ne        -0.0456054091       -2.0116799104       -0.8563701389
Ne         0.0267149913        1.7397881980       -1.3748064023
Ne        -2.0125461591       -0.1881744653        0.9120929815
Ne         1.8549280701        1.1985704588       -0.2008210442
Ne        -0.1843259201       -0.7293856668        2.0860671038
Ne        -0.2629604303        0.4247150489       -2.2137224384
Ne        -1.9264010942       -1.1479426984       -0.3482813403
Ne         2.1506981152       -0.2898206014       -0.6637898228
Ne         0.4872669965       -1.8624646107        1.2016272781
Ne        -0.5169644266       -1.2300714955       -1.4979969468
Ne         0.9693940534       -1.6700865233       -0.5435418633
Ne         1.5838221475        1.0890397686        0.8800159221
Ne        -0.8515832078        1.8099908132       -0.6838878784
Ne         0.5515658474        0.1131250780        2.0376224051
Ne        -1.8838449869        0.8340683004        0.4737291152
Ne         0.9543443776        1.4826450573       -0.8026694871
Ne        -1.1121471802       -0.4710613880        1.5147654885
Ne        -0.0829092123        0.5314178967        0.3740844223
Ne        -0.5073657999        0.9533469339        1.2295829836
Ne         0.1177148962        1.5443131710        0.5285955543
Ne         1.3960869905        0.0592386323        1.2948598372
Ne        -1.5506733632        0.9315680869       -0.5974004186
Ne         1.5100767418       -0.8283714540        0.6482054881
Ne        -1.3853362573        0.0287582264       -1.2110798387
Ne         0.5804933705        0.7499911181        1.1499110162
Ne        -0.8820479693        1.1829420398        0.2107385255
Ne         0.7638013404       -0.3572712143       -1.3541393621
Ne        -0.4703061171       -1.5240244272        0.0298280732
Ne        -0.6842953222        0.8773595000       -1.2983103430
Ne        -1.7004335462       -0.0833222660       -0.1587765231
Ne         1.6860213965        0.1756639723        0.2237883269
Ne         0.6698882394       -0.7850115464        1.3633094989
Ne         0.3989862686        0.6841543989       -1.3694565527
Ne         1.3095871644        0.4145829750       -0.7847158108
Ne        -1.2393485338       -0.8647641734        0.4678280174
Ne        -0.3287462518       -1.1343324761        1.0525630126
Ne        -1.0320890014        0.1812071594        0.6450911131
Ne        -0.1367650525       -0.0838340285        1.2200147930
Ne        -0.0267068073        1.1317196580       -0.4823829297
Ne         0.8686151072        0.8666721719        0.0925503040
Ne         0.7026857096       -0.1382794079        0.5100206258
Ne        -0.7255014460        0.2845085710       -0.4070866135
Ne        -0.3130420542       -0.1680136136       -1.2962189050
Ne        -0.9360825193       -0.7570507384       -0.5975207001
Ne         1.1478641840       -0.6004900554       -0.3581023725
Ne         0.5248240589       -1.1895265439        0.3405936093
Ne        -0.2756185483       -0.4838745762        0.2061492152
Ne         0.3363372679        0.0946799475       -0.4801191140
