100
2114123
Ne          2.1120497948        0.2102563826        2.1100270051
Ne         0.3476922191        2.5949947928        0.7503398385
Ne        -0.9337527338        1.3806423468        2.1540269057
Ne        -2.0779756892       -0.1532807455       -2.0296174500
Ne         2.3295840551       -1.5594683550        0.7775892929
Ne        -0.7018348602       -2.5703306120       -0.1831664357
Ne         1.1942502441       -0.7735159270       -2.2601233009
Ne        -2.6997993743       -0.4225455899        0.0963283153
Ne        -0.6301916880        1.5387091334       -2.1707073728
Ne         0.4706477305        1.3320959599       -2.2452709256
Ne        -2.2359813953       -1.2328268517        0.7195535636
Ne         0.6260200699       -1.4782382799        2.2138610969
Ne         2.6918417417        0.4794267260       -0.0490200135
Ne         2.3076243135        0.7466653177       -1.0705641613
Ne        -0.3960585784       -1.8154621062        1.8910270733
Ne        -1.7045332653        1.8801967986        0.0704986306
Ne        -2.5608955476        0.6109940388       -0.3287211982
Ne        -1.5138650471        1.6032080775       -1.4756332080
Ne        -2.2346850206        0.7475546604       -1.3933491791
Ne         1.2837417776        0.9333341166        1.9793896825
Ne         1.3773339531       -0.6390394677        2.1749984916
Ne         2.4172086768        0.3463910467        1.0359312990
Ne        -1.3263864842       -1.5374708850        1.3147363083
Ne         1.4002954334        1.0464530222       -1.6720511258
Ne        -0.2953436921        2.0016833718        1.4620658239
Ne         2.2217821112       -0.6757378629        1.4437098295
Ne        -1.3556814397        0.6930942009       -2.1019483566
Ne        -2.3909491892       -0.2879729430       -0.9679221012
Ne        -0.6841337473        2.2597346309        0.4157859192
Ne        -1.3309166960        1.6468153369        1.1242682299
Ne         0.1781950731        1.1666421728        2.0867414395
Ne         0.8251124174        1.7796886558        1.3781120412
Ne         2.5124973665       -0.5402803597        0.3647083178
Ne         1.4788924609       -1.5197704530        1.4969084603
Ne         0.8339669575        0.2794873149       -2.2538824981
Ne        -1.4693293091       -1.9032188982        0.2691319473
Ne         1.7517634184       -0.0129053316       -1.6675035817
Ne        -0.5504992131       -2.1946308484        0.8543762918
Ne         0.1994771665        2.2093636560       -0.3001907258
Ne        -1.4932695962        0.6052428806        1.5540337975
Ne         1.1234633979        1.9135871104        0.2912503582
Ne        -0.5665947696        0.3120145810        2.1425289501
Ne        -1.6242099137       -0.9649594777       -1.4181236908
Ne        -0.9881409315       -0.3621914953       -2.1148694108
Ne         1.3212444195       -1.9042629491        0.4586558127
Ne         1.9576256865       -1.3011996582       -0.2384300668
Ne        -1.1660319214       -1.7701687646       -0.8027559222
Ne         0.1020393127       -0.5684873408       -2.1917920010
Ne         0.3113042927       -2.2411760099        0.1387701473
Ne         1.5796037848       -1.0392789786       -1.2505141222
Ne         0.5625850394       -1.3781818225       -1.5718305258
Ne        -0.0690207457       -1.9767195803       -0.8799745144
Ne         0.0444591887        1.7822339284       -1.3305347904
Ne        -2.0155336841       -0.1699061863        0.9259678847
Ne         1.8646007101        1.2011825991       -0.1661671179
Ne        -0.1915650216       -0.7473309017        2.0861424571
Ne        -1.9400997627       -1.1046414922       -0.3536635242
Ne        -0.2618719671        0.4857232854       -2.1919836521
Ne         2.1444175683       -0.2810431942       -0.6571914941
Ne         0.4671765856       -1.8704706423        1.1800424096
Ne        -0.8299476849        1.8503012823       -0.6365134576
Ne        -1.8762716219        0.8587588704        0.5096239587
Ne        -0.5332665986       -1.1783083132       -1.5062026952
Ne         0.9493442493       -1.6509045348       -0.5615576468
Ne         1.5925654157        1.0750985730        0.9123322149
Ne         0.5518558025        0.0888776304        2.0523181468
Ne         0.9680788020        1.5054365934       -0.7626119705
Ne        -1.1172315073       -0.4706952772        1.5216228418
Ne        -0.0807204382        0.5440004239        0.3969403485
Ne        -1.5539289605        0.9839434502       -0.5673747791
Ne        -0.5002664281        0.9541939636        1.2603369904
Ne         0.1302194377        1.5516713572        0.5697074846
Ne         1.3945765482        0.0400434300        1.3077747715
Ne        -1.3901750443        0.0856576340       -1.1950051194
Ne        -0.8743140639        1.2059853580        0.2451457695
Ne         1.4992989180       -0.8367129403        0.6448783330
Ne         0.5856864530        0.7415147170        1.1761794269
Ne         0.7560617377       -0.3217833997       -1.3476607748
Ne        -0.4882229216       -1.5009231575        0.0153190551
Ne        -0.6780479494        0.9271178662       -1.2680117971
Ne        -1.7042230906       -0.0453319102       -0.1439461351
Ne         1.6852557826        0.1727852137        0.2390823969
Ne         0.6606257520       -0.7981998339        1.3614531292
Ne         0.4031352580        0.7232002381       -1.3442571552
Ne        -1.2502101890       -0.8435833432        0.4668060877
Ne         1.3101857385        0.4337498733       -0.7644025314
Ne        -0.3416019822       -1.1315568471        1.0449529116
Ne        -1.0318241461        0.1963992774        0.6640590530
Ne        -0.0162300235        1.1588229671       -0.4484188806
Ne        -0.1388931112       -0.0864121908        1.2318440299
Ne         0.8747812011        0.8741881744        0.1214748365
Ne        -0.7289211069        0.3211631786       -0.3875972734
Ne         0.6985225075       -0.1360611325        0.5199838419
Ne        -0.3193716197       -0.1218574758       -1.2846746245
Ne        -0.9471324573       -0.7167517426       -0.5970300955
Ne         1.1383930106       -0.5867045455       -0.3566945880
Ne         0.5101463926       -1.1820592206        0.3314816546
Ne        -0.2836654466       -0.4657787238        0.2102051557
Ne         0.3330821714        0.1186767628       -0.4653766405
Ne         0.1353853241       -0.9218059226       -0.6738758934
