150

Ne    0.042659464461623  -0.000000157820067  -0.055928100897987
Ne    0.045209001360978   0.000002818326428   0.978912798014164
Ne    0.328751924361526  -0.881105674791903   0.407795859225850
Ne   -0.705722310538808  -0.545272933143894   0.406137376655167
Ne   -0.705722387649785   0.545275169250582   0.406134240487743
Ne    0.328751799758106   0.881108066724028   0.407790791501356
Ne    0.968949075515155   0.000001240352906   0.407487141317822
Ne   -0.244635486576975  -0.881222146634956  -0.518178625832741
Ne   -0.884676084678044  -0.000001551500635  -0.517755469232309
Ne   -0.244635611196484   0.881219131697868  -0.518183694211579
Ne    0.791103857521432   0.544652916369231  -0.518665614364047
Ne    0.791103934544773  -0.544655787612588  -0.518662481760850
Ne    0.041025972512162  -0.000003133962417  -1.090790081449241
Ne    0.041422036476893   0.000005871596489   2.040727885303756
Ne    0.337107813980968  -0.901656965697038   1.478492322476750
Ne   -0.717741353157577  -0.559610505285287   1.473730302059178
Ne   -0.717741432296563   0.559618879999190   1.473727083410931
Ne    0.337107686470812   0.901665516967769   1.478487136532900
Ne    0.990763374644485   0.000004323496002   1.479060586240382
Ne    1.283113407676769  -0.901285817686974   0.892620145437471
Ne    0.621925610466618  -1.783978108119498   0.882957909995079
Ne   -0.431110981436943  -1.459485723570208   0.892530814055701
Ne   -1.473942525583631  -1.100349829697427   0.884878393090090
Ne   -1.488422146666783   0.000002442366891   0.885887737905565
Ne   -1.473942681192061   1.100354710655372   0.884872064366144
Ne   -0.431111187833278   1.459490796009467   0.892522419745489
Ne    0.621925358181563   1.783983274411604   0.882947649352533
Ne    1.283113280219329   0.901291133069598   0.892614961637601
Ne    1.917842265154398   0.000002674009268   0.882685350495691
Ne    1.101421584448816  -1.458693218174299  -0.055347896362275
Ne    0.041319882690212  -1.802992653955362  -0.054562104448483
Ne   -1.018590183580232  -1.459052921911242  -0.053580698965415
Ne   -1.672845714429019  -0.557827293797124  -0.054611680720827
Ne   -1.672845793315198   0.557826743117745  -0.054614889087188
Ne   -1.018590389914970   1.459052469669486  -0.053589090770461
Ne    0.041319627716565   1.802992345952536  -0.054572474438274
Ne    1.101421378164925   1.458693055573972  -0.055356286099303
Ne    1.756414153424068   0.557217283910020  -0.055708353797267
Ne    1.756414232224025  -0.557217355923138  -0.055705148937614
Ne    0.514808642153598  -1.458787726510848  -1.002744050824798
Ne   -0.539284358099912  -1.784197218472420  -0.991496368477187
Ne   -1.199901490725910  -0.901706988974036  -1.001313030352395
Ne   -1.834907051052863  -0.000002979661026  -0.991009656872417
Ne   -1.199901618242116   0.901701060177290  -1.001318216542315
Ne   -0.539284610415180   1.784191439544466  -0.991506630348479
Ne    0.514808435856733   1.458782031963332  -1.002752441089485
Ne    1.558521974431455   1.102687938962407  -0.993538984258530
Ne    1.574705500130803  -0.000002774536426  -1.003515466129894
Ne    1.558522130370576  -1.102693432925465  -0.993532642085085
Ne   -0.252570577721390  -0.901572144108844  -1.588068314889416
Ne   -0.907437008782016  -0.000004629795866  -1.587619877722774
Ne   -0.252570705218298   0.901562974532178  -1.588073500294450
Ne    0.807284772242561   0.557242947998618  -1.588871390743406
Ne    0.807284851046781  -0.557251972288586  -1.588868185710399
Ne    0.039937032423952  -0.000006185390691  -2.151844832269107
Ne    0.026723722926093   0.000009024785018   3.137556180214804
Ne    0.337951631402687  -0.913137949554113   2.566880410649083
Ne   -0.734857476005099  -0.568278810417497   2.559636113496107
Ne   -0.734857556370372   0.568293428345257   2.559632844973772
Ne    0.337951502268483   0.913152760855416   2.566875158653852
Ne    0.999197483006733   0.000007456279136   2.568224485351906
Ne    1.307493010993850  -0.918707390282233   1.992633077860284
Ne    0.635139760278859  -1.821191751152929   1.977520044680508
Ne   -0.438252658739266  -1.488434158586799   1.991539189306803
Ne   -1.498104954683511  -1.122497732839713   1.977466493887061
Ne   -1.502214573398528   0.000005557491365   1.969457640684660
Ne   -1.498105113424472   1.122508894448302   1.977460037760426
Ne   -0.438252869229847   1.488445551010100   1.991530628480233
Ne    0.635139502730720   1.821203214734852   1.977509569983966
Ne    1.307492881072257   0.918719035884486   1.992627793841276
Ne    1.956679045598503   0.000005826309353   1.977888402338829
Ne    2.254063609901159  -0.913894804466318   1.382885375005149
Ne    1.595198528339592  -1.820959783669897   1.382810685487631
Ne    0.925240739970184  -2.716944456666516   1.373473194356833
Ne   -0.143474943389046  -2.386569317543473   1.383629021756681
Ne   -1.210404551491665  -2.037449944263038   1.385866447031761
Ne   -2.268052474879711  -1.666302921309138   1.387207802415068
Ne   -2.280727718494859  -0.554213385487632   1.380515102184376
Ne   -2.280727796870548   0.554221003037629   1.380511914580076
Ne   -2.268052710523679   1.666310579126581   1.387198218579313
Ne   -1.210404839622113   2.037457743928787   1.385854728527350
Ne   -0.143475280890890   2.386577255216694   1.383615295276612
Ne    0.925240355747698   2.716952487057068   1.373457567709514
Ne    1.595198270824489   1.820967962523631   1.382800212134706
Ne    2.254063480660385   0.913903076939314   1.382880118675638
Ne    2.898671579756801   0.000004153655058   1.373090355809606
Ne    2.088614677049115  -1.487070882469495   0.427584096994803
Ne    1.411092588794802  -2.386206682449107   0.421643499379189
Ne    0.336170489123613  -2.735181163610594   0.422482751045388
Ne   -0.741074413693716  -2.406239104878265   0.430081282158459
Ne   -1.805960181047587  -2.036909141845197   0.428580902049632
Ne   -2.467954784162838  -1.124307436427346   0.426660561078195
Ne   -2.488077338950343   0.000001054959757   0.428020017388779
Ne   -2.467954943159082   1.124309541354950   0.426654094569016
Ne   -1.805960469101161   2.036911351419860   0.428569186671747
Ne   -0.741074753976807   2.406241473669182   0.430067442562768
Ne    0.336170102322541   2.735183641033441   0.422467019524825
Ne    1.411092251344616   2.386209307062911   0.421629775000111
Ne    2.088614466751936   1.487073637078872   0.427575544034016
Ne    2.734194616884331   0.564892661699525   0.421171515330966
Ne    2.734194696769512  -0.564889852642503   0.421174764327603
Ne    1.887426088951645  -2.039798405495982  -0.532625404843169
Ne    0.822700689471934  -2.406292374414766  -0.537996118064246
Ne   -0.254403209461545  -2.735374490146154  -0.530456253792561
Ne   -1.329450404433018  -2.386160094461072  -0.528618052452875
Ne   -2.006292495662701  -1.487528756525668  -0.534973313443423
Ne   -2.651561202999572  -0.565377513456030  -0.529432612041884
Ne   -2.651561282953277   0.565374093416356  -0.529435863825411
Ne   -2.006292706024199   1.487525395855060  -0.534981869020106
Ne   -1.329450741876201   2.386156866045076  -0.528631776547168
Ne   -0.254403596289563   2.735371403181747  -0.530471986409048
Ne    0.822700349181687   2.406289396410664  -0.538009957950943
Ne    1.887425800489835   2.039795608958024  -0.532637136824384
Ne    2.551609225496523   1.125684969790864  -0.533004958794212
Ne    2.571296475311354  -0.000001368942281  -0.539248184679304
Ne    2.551609384687616  -1.125687674532720  -0.532998484360365
Ne    1.292599686182424  -2.039895736684294  -1.493312429362851
Ne    0.225721305626438  -2.386374310306704  -1.492171877118016
Ne   -0.843281055710923  -2.717149869539163  -1.481096789567370
Ne   -1.512991252392619  -1.821478399162240  -1.490453737317292
Ne   -2.171594051588675  -0.914222968641836  -1.490333489246981
Ne   -2.816440870159915  -0.000004456791147  -1.480522559099065
Ne   -2.171594180874644   0.914214089808672  -1.490338747414618
Ne   -1.512991509979863   1.821469612760029  -1.490464213604268
Ne   -0.843281439961279   2.717141231647374  -1.481112417348196
Ne    0.225720968153337   2.386365759896564  -1.492185602429076
Ne    1.292599397707246   2.039887330594607  -1.493324161887739
Ne    2.351749430482495   1.679362594539471  -1.484504727500458
Ne    2.367380747712462   0.560729714062765  -1.494136166027207
Ne    2.367380827009715  -0.560737972854942  -1.494132940942116
Ne    2.351749667973362  -1.679370800128030  -1.484495068549849
Ne    0.523008950781551  -1.487329838892042  -2.101586485580392
Ne   -0.552226178681823  -1.821484814579130  -2.085557164261750
Ne   -1.225240589119497  -0.919224751628042  -2.100078711249870
Ne   -1.875105388234097  -0.000006128364845  -2.084928691601471
Ne   -1.225240719112564   0.919212499649020  -2.100083998175780
Ne   -0.552226436269742   1.821472741282110  -2.085567640576173
Ne    0.523008740448795   1.487317825463655  -2.101595039988109
Ne    1.589256649180015   1.125747454333899  -2.087656166997061
Ne    1.603643642740317  -0.000005932731485  -2.102434819271600
Ne    1.589256808380586  -1.125759236812741  -2.087649692177726
Ne   -0.257654157064559  -0.914212924636639  -2.675780192901861
Ne   -0.921707403782454  -0.000007758762278  -2.675313076997909
Ne   -0.257654286348645   0.914197498318680  -2.675785450992901
Ne    0.817034681582929   0.565011862395250  -2.676671108662089
Ne    0.817034761486247  -0.565027141833683  -2.676667858927845
Ne    0.038987555200302  -0.000009339394091  -3.248571742187107
Ne   -1.529557266861372   0.000008722181574   3.070596342115470
Ne   -2.300096225131465   0.559518679287070   2.482861963855874
Ne   -2.300096146007044  -0.559504724261750   2.482865181911764
