200

Ne  -0.1543873250  -0.5687162280   0.2870918512
Ne  -0.1521424800  -0.5599496365   1.3213607073
Ne   0.1359581798  -1.4433838129   0.7477914691
Ne  -0.9046305418  -1.1059100628   0.7472511530
Ne  -0.9019368291  -0.0221940242   0.7463188767
Ne   0.1349944025   0.3106642962   0.7495793104
Ne   0.7722315192  -0.5630657673   0.7485547066
Ne  -0.4397061765  -1.4443426132  -0.1815902293
Ne  -1.0781105757  -0.5642672777  -0.1798091680
Ne  -0.4348931313   0.3098812103  -0.1731150299
Ne   0.5882257819  -0.0232322421  -0.1748401523
Ne   0.5945128202  -1.1075270176  -0.1796318740
Ne  -0.1552187949  -0.5678420663  -0.7484911084
Ne  -0.1518126130  -0.5462244153   2.3806581497
Ne   0.4324653447   1.2149809599   1.2156041861
Ne   1.7259544134  -0.5503395796   1.2136307955
Ne   0.4336438179  -2.3404777050   1.2199686766
Ne  -1.6738735437  -1.6562633514   1.2192423344
Ne  -1.6663907766   0.5472124815   1.2111411095
Ne   1.3452392817   0.5397769809  -0.6483708620
Ne   1.3673795462  -1.6506474018  -0.6614854336
Ne  -0.7314163446  -2.3412621021  -0.6610691547
Ne  -2.0235588551  -0.5487838387  -0.6607733369
Ne  -0.7178043723   1.2104812860  -0.6456463337
Ne  -0.1526015103  -0.5577442646  -1.8096003532
Ne   0.1451294571   0.3446795940   1.8161669970
Ne   0.7991540432  -0.5527511835   1.8161536455
Ne   0.1446338594  -1.4554170370   1.8176223040
Ne  -0.9207148552  -1.1101417542   1.8166707754
Ne  -0.9192345738   0.0027107548   1.8133507967
Ne   1.0891941786   0.3424198627   1.2300227880
Ne   1.0943373442  -1.4574288130   1.2296856642
Ne  -0.6253973842  -2.0153212547   1.2307771444
Ne  -1.6896901131  -0.5545330048   1.2288707495
Ne  -0.6200451255   0.8902458549   1.2209659815
Ne   0.8965641856   0.8890134096   0.2814128697
Ne  -0.1462435424   1.2282545567   0.2841289639
Ne   1.5473603010  -0.0010868461   0.2818051577
Ne   1.5607744455  -1.1113122702   0.2796073854
Ne   0.9129482508  -2.0150668621   0.2796434760
Ne  -0.1486061662  -2.3612065315   0.2796126306
Ne  -1.2146188021  -2.0151851177   0.2793030143
Ne  -1.8698362112  -1.1110055447   0.2794864178
Ne  -1.8634648323   0.0002981475   0.2793982923
Ne  -1.1992640495   0.8904871941   0.2821968794
Ne   1.3670564890  -0.5549709201  -0.6620261073
Ne   0.3240006268  -2.0151886940  -0.6713498831
Ne  -1.3936135769  -1.4572024345  -0.6712003946
Ne  -1.3786749840   0.3373548687  -0.6604669690
Ne   0.3182645738   0.8891968131  -0.6560876369
Ne   0.6037346721  -0.0031384237  -1.2387087345
Ne   0.6120196581  -1.1134872437  -1.2525511980
Ne  -0.4456536770  -1.4609535933  -1.2549654245
Ne  -1.0971540213  -0.5581333041  -1.2522828579
Ne  -0.4380732179   0.3354396522  -1.2374361753
Ne   0.1436756551   0.3789908886   2.9007427692
Ne   0.8126549125  -0.5408743620   2.9003946781
Ne   0.1485396326  -1.4583843946   2.9036502838
Ne  -0.9307942390  -1.1063780785   2.9029159546
Ne  -0.9305164814   0.0322834216   2.8990638256
Ne   0.4445300996   1.2739161253   2.3020122051
Ne   1.7732895613  -0.5413607955   2.3031771183
Ne   0.4464736581  -2.3715627193   2.3144142628
Ne  -1.7042908669  -1.6729481220   2.3135039806
Ne  -1.6989669800   0.5853884220   2.2991411686
Ne   1.1179744005   0.3750613034   2.3242034912
Ne   1.1221842766  -1.4666512012   2.3279290199
Ne  -0.6339854598  -2.0371904373   2.3308475018
Ne  -1.7187466621  -0.5431053042   2.3265852928
Ne  -0.6284896731   0.9343668818   2.3067488670
Ne   1.4076558352   1.2713170052   1.7053955793
Ne   2.0727043152  -1.4559317827   1.7098523378
Ne  -0.3337816298  -2.9395630360   1.7199419737
Ne  -2.4838306904  -1.1061780453   1.7168012857
Ne  -1.3861260414   1.4823733568   1.6867468357
Ne   2.0617558956   0.3733548820   1.7060085535
Ne   1.4113327265  -2.3715257645   1.7172847986
Ne  -1.4054542780  -2.5914847851   1.7195100784
Ne  -2.4799396992   0.0244934540   1.7105644941
Ne  -0.3298337162   1.8169794083   1.6835961342
Ne   1.8706010580   0.9264170527   0.7467877865
Ne   1.9050996304  -2.0342926979   0.7577978969
Ne  -0.9329188466  -2.9612336159   0.7623865604
Ne  -2.6843945980  -0.5429453254   0.7584180832
Ne  -0.9158021808   1.8300383091   0.7466598749
Ne   1.2002862692   1.8118019104   0.7408168912
Ne   0.1491576582   2.1528449059   0.7452598214
Ne   2.5199155807   0.0235465933   0.7403368950
Ne   2.5439856052  -1.1038006544   0.7405156493
Ne   1.2274402380  -2.9375047684   0.7537945509
Ne   0.1495268643  -3.2898707390   0.7555392385
Ne  -2.0020639896  -2.5912084579   0.7550255656
Ne  -2.6669511795  -1.6721060276   0.7534409761
Ne  -2.6538667679   0.5860915780   0.7447025180
Ne  -1.9727411270   1.4806146622   0.7402537465
Ne   1.6665208340   1.4694738388  -0.1989769340
Ne  -0.4320393205   2.1506478786  -0.1949782819
Ne   2.3238010406   0.5732192993  -0.1998631209
Ne   2.3634281158  -1.6584526300  -0.2046333998
Ne   1.7067321539  -2.5811707973  -0.2068345696
Ne  -0.4425570965  -3.2899942398  -0.2006767392
Ne  -1.5228791237  -2.9392364025  -0.2008574605
Ne  -2.8451466560  -1.1019761562  -0.2062259763
Ne  -2.8347005844   0.0304799452  -0.2024351954
Ne  -1.4909830093   1.8122287989  -0.1973467320
Ne   0.6220405102   1.8253881931  -0.2012820989
Ne   2.3494129181  -0.5363214612  -0.2083015293
Ne   0.6386521459  -2.9590430260  -0.2088718712
Ne  -2.2031338215  -2.0357775688  -0.2088730484
Ne  -2.1637759209   0.9291744828  -0.2063979656
Ne   2.1428751945   0.0171218663  -1.1475877762
Ne   1.1112420559  -2.5814208984  -1.1676018238
Ne  -1.7053821087  -2.3707027435  -1.1647195816
Ne  -2.3335716724   0.3698978424  -1.1542770863
Ne   0.0381527878   1.8090008497  -1.1396235228
Ne   2.1577923298  -1.0896259546  -1.1566513777
Ne   0.0389824621  -2.9374709129  -1.1648571491
Ne  -2.3637194633  -1.4521329403  -1.1669751406
Ne  -1.6712157726   1.2564222813  -1.1446280479
Ne   1.0838823318   1.4691182375  -1.1411423683
Ne   0.6155092120   0.0216629095  -2.3115503788
Ne   0.6314612031  -1.1020025015  -2.3425664902
Ne  -0.4456790388  -1.4595849514  -2.3452334404
Ne  -1.1072385311  -0.5369535685  -2.3421285152
Ne  -0.4345038831   0.3627615273  -2.3104517460
Ne   1.3736567497   0.5728942752  -1.7270804644
Ne   1.3985757828  -1.6598274708  -1.7597216368
Ne  -0.7421757579  -2.3733067513  -1.7584884167
Ne  -2.0551025867  -0.5374791622  -1.7587583065
Ne  -0.7233579755   1.2542604208  -1.7246763706
Ne   1.3933563232  -0.5365865231  -1.7470870018
Ne   0.3355882168  -2.0346667767  -1.7746686935
Ne  -1.4152399302  -1.4657168388  -1.7743905783
Ne  -1.3910224438   0.3681577444  -1.7453773022
Ne   0.3286381364   0.9245669246  -1.7380888462
Ne  -0.1518865675  -0.5374428034   3.4726345539
Ne   0.7333235741   2.1462018490   1.6908531189
Ne   2.7179079056  -0.5265716910   1.6780188084
Ne   0.7390676737  -3.2686257362   1.7084194422
Ne  -2.4670403004  -2.2273540497   1.7075204849
Ne  -2.4434611797   1.1598781347   1.6867429018
Ne   2.1189031601   1.1154918671  -1.1325727701
Ne   2.1747450829  -2.1943686008  -1.1634900570
Ne  -1.0329916477  -3.2692584991  -1.1532789469
Ne  -2.9967622757  -0.5135127902  -1.1619471312
Ne  -1.0068538189   2.1311092377  -1.1289460659
Ne  -0.1468917727  -0.5384015441  -2.8993976116
Ne  -1.4111919403   1.5446897745   2.7796039581
Ne  -0.3439420462   1.8856455088   2.7790138721
Ne  -1.1062800884   2.4290215969   2.1613554955
Ne  -0.0427941941   2.7654819489   2.1584098339
Ne   2.1949551105   1.8666062355   1.2101122141
Ne  -1.6973280907   2.4343204498   1.2171040773
Ne   2.8597202301   0.9615954161   1.2112377882
Ne  -0.6286494732   2.7752790451   1.2136371136
Ne   1.5101761818   2.7536098957   1.2067760229
Ne   0.4446331561   3.0965898037   1.2102013826
Ne   2.6622598171   1.5150265694   0.2614243925
Ne  -1.2129355669   2.7717723846   0.2678534985
Ne   1.9849201441   2.4097335339   0.2586536109
Ne  -0.1404506117   3.0971400738   0.2648624778
Ne   3.3164343834   0.6036220193   0.2564581931
Ne  -2.2763361931   2.4193480015   0.2616356909
Ne   0.9264181852   2.7678341866   0.2584727108
Ne   3.3443377018  -0.5142171383   0.2484489828
Ne  -2.9564263821   1.5317213535   0.2508785427
Ne   2.4530928135   2.0585904121  -0.6854816675
Ne  -0.7244057059   3.0897026062  -0.6799510121
Ne   3.1172282696   1.1551456451  -0.6877949834
Ne  -1.7916930914   2.7495808601  -0.6827324629
Ne   1.4000098705   2.4215180874  -0.6898561120
Ne   3.1465804577   0.0423819311  -0.6996498108
Ne  -3.1379477978   0.9716393352  -0.7045210004
Ne   0.3402481377   2.7656474113  -0.6876899600
Ne   3.1619644165  -1.0747023821  -0.7069211006
Ne  -2.4688549042   1.8664774895  -0.6958405375
Ne   2.9350888729   0.5955193639  -1.6419848204
Ne  -0.2482980192   2.7444121838  -1.6318781376
Ne   2.9519298077  -0.5161682367  -1.6526535749
Ne  -2.6397719383   1.3008821011  -1.6491850615
Ne   0.8094678521   2.4066154957  -1.6365822554
Ne  -1.9731683731   2.1903324127  -1.6376755238
Ne   1.8639901876   2.0579330921  -1.6348396540
Ne   2.9182837009   1.7069313526  -1.6315066814
Ne  -1.3071060181   3.0797743797  -1.6265339851
Ne   2.1588549614   1.1552056074  -2.2259042263
Ne  -1.0172539949   2.1872620583  -2.2224071026
Ne   2.1828258038   0.0433108993  -2.2476625443
Ne  -2.3573322296   0.4060695767  -2.2559828758
Ne   0.0456285365   1.8576531410  -2.2380144596
Ne   2.1964941025  -1.0737332106  -2.2586669922
Ne  -1.6896973848   1.3016996384  -2.2446300983
Ne   1.1049474478   1.5134110451  -2.2394104004
Ne   1.3979458809   0.6055346131  -2.8179221153
Ne  -0.7252066135   1.2953879833  -2.8156526089
Ne   1.4204640388  -0.5103849173  -2.8427135944
Ne  -1.3991771936   0.4058616459  -2.8407528400
Ne   0.3392464817   0.9596074224  -2.8282811642
Ne   0.6330239773   0.0524149425  -3.4060208797
Ne  -0.4321548641   0.3983165324  -3.4048483372
