200

Ne  -1.1910057068   1.8718105555   0.2237886339
Ne  -1.7860540152  -2.6477169991   1.6818124056
Ne  -1.4132014513   2.1784687042   1.7427942753
Ne   1.5159589052   3.1029098034  -0.1841464192
Ne  -1.0586547852  -1.2021325827  -1.6787631512
Ne  -0.2153548300   3.2594168186  -1.0482929945
Ne   0.0660115108  -0.3499394059   0.3750505447
Ne  -1.1898217201  -1.7152848244   0.1587078571
Ne  -2.4586822987   0.6025775671   2.1575629711
Ne   1.1170445681  -0.5072813630   3.0088653564
Ne  -1.3912872076  -0.7993869185   1.4063401222
Ne  -0.6486737728   0.8348749280   1.6005475521
Ne   0.8993497491   3.1450557709  -1.1159703732
Ne  -2.2651264668  -0.3381726742   0.9154945016
Ne   0.6217907667   0.5399541259  -1.0273752213
Ne   2.3480217457  -0.0547841825  -2.1650748253
Ne   1.8924512863   0.0493436232   0.2625978887
Ne  -2.3800311089   1.6245639324   1.7082461119
Ne   2.2232387066   1.4772050381  -0.9517428279
Ne  -0.4992577434  -1.2548245192   1.8704512119
Ne   1.7188137770   1.5718026161   0.0471925028
Ne  -3.0509529114  -1.5637383461   0.3510620892
Ne   0.1910541058   0.5052962303   0.9988638759
Ne   1.8650358915  -2.2951037884  -0.5136685371
Ne  -0.7670409679  -0.0374307781   0.9623514414
Ne   2.4794366360  -0.9711299539   1.7327777147
Ne  -1.0703806877   2.7667098045   0.8510720730
Ne   0.0198727865  -0.2083173394  -0.6455450058
Ne   1.5721892118  -1.2496447563   2.3174076080
Ne  -2.4918010235   0.7419941425   1.0636397600
Ne  -1.2012654543  -2.0885920525  -2.2882692814
Ne  -0.0293751322  -0.0562670268  -1.6650220156
Ne   0.1615934968  -0.6346653104   2.4894728661
Ne  -0.4613367617   0.6514912248  -0.9616031051
Ne  -1.3491410017  -2.6280817986  -0.4145658314
Ne   1.2149744034   1.6500126123   1.0327939987
Ne  -0.3604529798  -2.8184535503  -2.4231331348
Ne  -0.3445629478   1.5252387524  -0.3631103039
Ne  -0.1570498049  -0.9200578928  -2.2783696651
Ne   0.7372613549  -1.3867772818  -1.7909981012
Ne   0.5866563916   0.7169324160  -2.0777783394
Ne  -0.8006316423   0.1004693657  -0.0951082557
Ne  -1.7083777189  -2.0017569065  -1.2816804647
Ne   2.4760966301   0.3942799270  -1.1374043226
Ne  -3.2758584023  -0.4805685580   0.5118070841
Ne  -1.6919356585   2.7962992191  -0.0763402581
Ne   2.8595678806   0.1892321706   0.7455715537
Ne   0.7618625164   2.2420225143  -1.7451860905
Ne  -0.1031596139  -1.0544906855  -1.2213262320
Ne  -0.5783641338  -0.9539427757  -0.2525558472
Ne   1.0845633745   0.7775384188   0.4122920334
Ne   0.1440449506   1.4387924671  -1.3560835123
Ne   1.9709126949  -1.8354697227   0.5154650211
Ne   0.4364324212  -2.8975687027   1.5586928129
Ne  -2.3092718124   0.8847954869  -0.8411226273
Ne  -0.5429075956  -1.1076773405   0.8017700911
Ne   1.9564102888  -0.0854934007   1.3375754356
Ne   1.8132667542  -0.3894467056  -0.7424826026
Ne   0.2654023170   1.4876871109   0.5453369021
Ne   0.5557709932  -1.2214957476   0.7357457876
Ne  -0.6891189218   0.9624786377   0.5200639367
Ne   0.6198340654  -2.2758150101  -2.4029409885
Ne   2.6866855621   1.7342070341   0.5357617140
Ne   2.5586497784  -1.1459733248  -2.3224244118
Ne  -0.7231529951  -0.1779077202   2.0304870605
Ne   2.2208342552  -1.7278192043  -1.4240828753
Ne  -1.3124510050   0.9875621796  -0.3997521102
Ne  -2.6362595558   0.3023586273   0.0622978956
Ne   0.3919155598   2.3633635044   1.1633193493
Ne   1.2527205944  -2.3061895370  -1.4669010639
Ne   0.9907212853  -1.9389219284   0.0309467390
Ne   0.8134826422  -0.3639101386  -2.2445247173
Ne   2.3484141827  -1.2849993706  -0.3935696781
Ne   0.5466024280   0.8886666298  -3.1472024918
Ne   1.0604369640  -0.3615992367   1.9224927425
Ne   0.8442998528  -0.5125337243  -1.1885213852
Ne  -1.6361724138   0.4187812507   0.4746674597
Ne   0.2732585967   2.3295826912  -0.7391407490
Ne  -0.0940383822   3.2995481491   0.8745068312
Ne  -1.1589556932  -1.8709886074   1.2339259386
Ne   0.1417562068   0.6309794188  -0.0592022911
Ne   1.8570723534   2.4654235840   0.6736425161
Ne  -0.0095966263  -2.1560394764   2.2645878792
Ne   0.2398275435   0.3704054058   2.0656814575
Ne  -1.9347044230   1.4530655146  -1.7392332554
Ne   1.6885471344  -0.8237899542  -1.7448198795
Ne  -0.5225238204   0.8306249976  -2.0100920200
Ne  -1.8210958242   1.8936132193  -0.7056766152
Ne  -3.1276183128  -0.0257432740   1.5216646194
Ne   0.3854829967  -1.9523161650  -0.8947519064
Ne   1.1437530518   0.6501460671   1.4921780825
Ne  -0.8344342113   2.4330003262  -0.6674443483
Ne  -2.5295917988  -1.2413107157  -1.1171995401
Ne   2.9992277622   1.0749958754   1.3855874538
Ne   2.0219049454  -1.9893687963   1.6119488478
Ne  -0.9832291007  -0.1800767183  -2.1317820549
Ne   0.2901770473   0.2317765951   3.1509160995
Ne  -0.8595798016  -2.7344195843  -1.4235531092
Ne   1.8696718216   2.1239547729  -1.7885990143
Ne   2.0336835384   0.9218936563   0.8921148181
Ne   1.3509280682   2.5394411087   1.6612517834
Ne   0.6055517793  -1.3688237667   1.8038227558
Ne  -2.2447273731  -0.4869833887   2.0137600899
Ne  -0.2198052108   2.4032948017   0.2521495223
Ne   0.2120188624  -0.7850141525   3.5909664631
Ne   0.4458902776   2.2577502728   2.2548151016
Ne   2.5539150238   0.8400370479  -0.1009109169
Ne  -0.0571669154  -1.9986890554   1.1765460968
Ne   1.4922463894  -2.8366582394   0.4081643522
Ne   2.1184964180   1.0380876064  -1.9898048639
Ne  -2.9049863815  -1.1056654453   1.3637651205
Ne   1.3553334475  -1.3970185518  -0.8613258004
Ne  -0.6805478334  -0.3225525320   3.1170134544
Ne  -0.5679382682   1.8345242739   1.1410306692
Ne  -1.4474074841   2.4647016525  -1.5860952139
Ne  -0.5275455713   1.7171946764   2.2378253937
Ne   2.9207932949   0.0527989082   1.8372192383
Ne   0.3825141490  -2.7442567348   0.4621089697
Ne  -0.7207137346  -1.8395351171  -0.8290103078
Ne   0.3170408010   1.3733953238   1.6220532656
Ne  -1.9560827017  -0.3097658455  -2.5972521305
Ne  -0.9508930445   1.5385949612  -1.2761605978
Ne   1.5840893984   0.6872647405  -0.5752267241
Ne  -0.2298246026  -1.9226596355  -1.8109749556
Ne   2.0195946693  -0.2273544669   2.4263205528
Ne   1.0078135729  -0.2217615843   0.8543025851
Ne   1.2377769947   1.3136168718  -1.4095219374
Ne   1.4803197384   0.2503862083  -1.5909694433
Ne   0.5006639361  -1.0642527342  -0.3164443970
Ne  -1.5709232092   0.1402337700   2.6411106586
Ne   0.7006503940  -1.2539077997  -2.8804976940
Ne  -2.1685819626   1.3278274536   0.1848686785
Ne  -2.8483638763  -0.5932808518  -1.9764387608
Ne   0.1130905896  -0.4908743501   1.4207605124
Ne   1.5144453049  -1.0992693901   1.2293422222
Ne  -0.0797125474   0.1003316492  -2.7151989937
Ne  -2.4150538445  -0.7893368602  -0.0981787518
Ne  -2.7586791515  -0.1488372236  -0.9525924325
Ne   1.4595841169  -0.9520625472   0.1509167105
Ne   2.4269578457  -0.8276221156   0.6377015710
Ne  -1.5271763802   1.2899422646   1.1076924801
Ne   1.4598021507   0.4200196266  -2.6740076542
Ne   1.0494713783  -2.1027700901   1.1049984694
Ne  -1.4233649969  -0.6510629058   0.3231971562
Ne  -1.5446243286  -1.0999017954  -0.6825954318
Ne   1.5952715874  -1.7168165445  -2.3692395687
Ne  -0.4462061822   2.7244997025   1.7700810432
Ne  -0.6060116291   0.7009211183   2.6870222092
Ne  -1.8659932613  -0.4603597522  -1.5184974670
Ne   0.8861104250   2.2897379398   0.1849114895
Ne  -0.1033567265  -1.8458554745   0.0979977772
Ne   2.6861476898  -0.7037729621  -1.3019675016
Ne  -0.9106948376  -0.3320227861  -1.0792671442
Ne  -1.5057226419   0.7232920527  -2.4894914627
Ne   1.1046427488  -2.2613193989   2.1897280216
Ne  -2.0206229687  -1.5691769123   1.8541326523
Ne   2.1040432453   0.7961965799   1.9886016846
Ne  -2.6823441982  -2.1836996078   1.2039567232
Ne   0.7569505572   1.4120978117  -0.4301884174
Ne   0.9468232989  -0.0831908286  -0.2005830556
Ne  -0.2355208993  -2.7645037174  -0.4814028442
Ne   0.0968343765   1.6387190819  -2.4310016632
Ne  -1.4244731665   0.5484104753  -1.4111570120
Ne  -2.0422787666  -1.4122897387   0.7562811971
Ne  -1.6068867445   0.2816909850   1.5523793697
Ne  -1.7719742060  -0.0174801126  -0.5210364461
Ne  -1.4957188368   1.1650309563   2.2054076195
Ne  -1.8215597868  -2.4923174381   0.5896031260
Ne   2.7890689373  -0.2567155659  -0.2744353712
Ne   0.5229213238   3.2676792145   1.7980995178
Ne  -2.0332748890  -1.3449814320  -2.1371068954
Ne  -0.7219649553  -2.6310176849   0.5319926739
Ne   0.3685046136   1.2472603321   2.7088744640
Ne   0.6582227945  -1.5229047537   2.8900902271
Ne  -1.1208382845  -2.0286231041   2.3231012821
Ne   1.6733294725  -0.6804580688  -2.8281288147
Ne  -2.0416676998   2.2208473682   0.8221170306
Ne  -1.0227837563   1.7397435904  -2.3437852859
Ne   2.1759550571   1.8096069098   1.5254995823
Ne  -2.4024300575   0.4300099313  -1.8646742105
Ne  -1.3551379442  -0.9487849474   2.4936511517
Ne  -0.4546618462  -1.4079962969   2.9573071003
Ne   1.2159818411   1.5103002787  -2.4806594849
Ne   1.2016675472   0.5154845715   2.5780904293
Ne   1.3792786598   2.2058131695  -0.8021889925
Ne   1.2797691822   1.5316591263   2.1287033558
Ne  -2.1820747852  -1.8770262003  -0.2620098591
Ne   2.3566200733   2.3795740604  -0.3217819631
Ne   0.4032865763   3.2295939922  -0.1187437922
Ne  -0.3415773213   2.3552472591  -1.6779595613
Ne  -1.0496017933  -0.0255749617  -3.2038404942
Ne   0.7757974863  -0.2118480653  -3.3187491894
Ne  -0.7115886807   3.3317031860  -0.0490705967
Ne   1.0192793608   3.1852114201   0.8070546389
Ne  -1.1334960461  -1.0663836002  -2.7651116848
Ne  -0.5813243389   1.0038124323  -3.0782616138
Ne   0.2637744844  -2.8489775658  -1.4912836552
Ne   0.8847434521  -2.8564844131  -0.5471029878
Ne  -0.6772331595  -2.7809698582   1.6271669865
Ne  -0.2103438079  -0.7774831057  -3.3531947136
