500
ne500-1
Ne    -0.348824     0.154664    -0.111682
Ne    -0.343292     0.151982     0.908185
Ne    -0.061432    -0.713214     0.346260
Ne    -1.087601    -0.380413     0.345602
Ne    -1.090283     0.690760     0.343566
Ne    -0.062238     1.018122     0.345273
Ne     0.568244     0.150557     0.345356
Ne    -0.624663    -0.713482    -0.564973
Ne    -1.264929     0.157093    -0.568856
Ne    -0.633517     1.022617    -0.569968
Ne     0.393393     0.687220    -0.565197
Ne     0.394078    -0.382238    -0.564793
Ne    -0.348762     0.156386    -1.132082
Ne    -0.334967     0.148890     1.950638
Ne     0.234755     1.899373     0.813896
Ne     1.504336     0.147561     0.812310
Ne     0.232664    -1.600052     0.813352
Ne    -1.840694    -0.930334     0.814786
Ne    -1.844163     1.240133     0.814595
Ne     1.153844     1.230581    -1.027005
Ne     1.152832    -0.931407    -1.027095
Ne    -0.902830    -1.603453    -1.027356
Ne    -2.199656     0.152568    -1.037866
Ne    -0.918210     1.912872    -1.037316
Ne    -0.345322     0.156115    -2.175964
Ne    -0.048451     1.035274     1.399622
Ne     0.594285     0.148285     1.398708
Ne    -0.049311    -0.735595     1.399454
Ne    -1.095226    -0.397034     1.398830
Ne    -1.096611     0.699645     1.397954
Ne     0.882311     1.034252     0.823399
Ne     0.881955    -0.736452     0.823180
Ne    -0.807974    -1.280788     0.824033
Ne    -1.863632     0.154289     0.825388
Ne    -0.808749     1.584723     0.823440
Ne     0.704987     1.582677    -0.107260
Ne    -0.341590     1.924130    -0.110879
Ne     1.347680     0.695651    -0.108084
Ne     1.347367    -0.398276    -0.107674
Ne     0.704631    -1.281801    -0.106790
Ne    -0.336652    -1.621707    -0.107321
Ne    -1.382065    -1.283160    -0.106548
Ne    -2.041691    -0.394514    -0.109071
Ne    -2.046729     0.705403    -0.111571
Ne    -1.396165     1.593638    -0.112625
Ne     1.169804     0.150163    -1.038806
Ne     0.129032    -1.283334    -1.038735
Ne    -1.562569    -0.734222    -1.041469
Ne    -1.577105     1.046602    -1.050820
Ne     0.123070     1.585790    -1.041423
Ne     0.412876     0.698645    -1.617367
Ne     0.412564    -0.394003    -1.617065
Ne    -0.626555    -0.734262    -1.617556
Ne    -1.282952     0.156738    -1.626548
Ne    -0.637392     1.045195    -1.627087
Ne    -0.326163     0.145866     3.012188
Ne     0.537844     2.797098     1.291552
Ne     2.455805     0.145009     1.287116
Ne     0.531518    -2.502493     1.288461
Ne    -2.605254    -1.494363     1.294158
Ne    -2.605648     1.803704     1.303636
Ne     1.928398     1.783909    -1.496969
Ne     1.924412    -1.490156    -1.497673
Ne    -1.185307    -2.510985    -1.498271
Ne    -3.150597     0.136340    -1.519234
Ne    -1.198454     2.826080    -1.510758
Ne    -0.338122     0.152803    -3.240113
Ne    -0.036175     1.041420     2.462642
Ne     0.611420     0.145822     2.461131
Ne    -0.038225    -0.747693     2.461726
Ne    -1.091646    -0.407142     2.462064
Ne    -1.091697     0.701948     2.462347
Ne     0.253403     1.929919     1.886162
Ne     1.543412     0.145504     1.882799
Ne     0.248914    -1.634938     1.883934
Ne    -1.853576    -0.957144     1.885725
Ne    -1.855216     1.256554     1.889021
Ne     0.909258     1.046262     1.899208
Ne     0.907503    -0.753188     1.898188
Ne    -0.806580    -1.308997     1.900192
Ne    -1.870507     0.149089     1.902389
Ne    -0.804773     1.606359     1.902352
Ne     1.192386     1.929317     1.303583
Ne     1.833460    -0.748307     1.301074
Ne    -0.515071    -2.186823     1.302632
Ne    -2.635611    -0.400722     1.312983
Ne    -1.563882     2.150813     1.309118
Ne     1.834721     1.040422     1.301840
Ne     1.188758    -1.635383     1.301580
Ne    -1.565152    -1.848808     1.304317
Ne    -2.635590     0.704699     1.314758
Ne    -0.510858     2.484398     1.306130
Ne     1.674814     1.602466     0.368087
Ne     1.672472    -1.308406     0.367409
Ne    -1.098055    -2.211065     0.368895
Ne    -2.845529     0.151022     0.370810
Ne    -1.101802     2.512020     0.368172
Ne     1.014526     2.482904     0.363909
Ne    -0.038689     2.827445     0.361790
Ne     2.304433     0.698412     0.360746
Ne     2.303534    -0.406727     0.360878
Ne     1.009827    -2.186955     0.362121
Ne    -0.041062    -2.530824     0.361590
Ne    -2.142683    -1.853617     0.365259
Ne    -2.816620    -0.960631     0.362682
Ne    -2.822003     1.264366     0.365833
Ne    -2.160131     2.166137     0.364418
Ne     1.480415     2.143283    -0.570550
Ne    -0.620876     2.835939    -0.576896
Ne     2.128039     1.247696    -0.572121
Ne     2.125618    -0.954639    -0.572235
Ne     1.476651    -1.847768    -0.571552
Ne    -0.616036    -2.534238    -0.572231
Ne    -1.668929    -2.194635    -0.570752
Ne    -2.998110    -0.412308    -0.578967
Ne    -3.004675     0.704453    -0.582077
Ne    -1.689021     2.508414    -0.577804
Ne     0.435967     2.507802    -0.579141
Ne     2.145978     0.146595    -0.578774
Ne     0.435768    -2.209135    -0.578143
Ne    -2.343996    -1.314149    -0.580010
Ne    -2.368893     1.623450    -0.588161
Ne     1.948720     0.695924    -1.512206
Ne     0.895952    -1.849969    -1.512507
Ne    -1.851075    -1.641573    -1.515338
Ne    -2.528672     1.050286    -1.534082
Ne    -0.152117     2.493915    -1.517189
Ne     1.947092    -0.401106    -1.512486
Ne    -0.145815    -2.192553    -1.512731
Ne    -2.508627    -0.753688    -1.521571
Ne    -1.873359     1.953589    -1.531458
Ne     0.895802     2.145941    -1.512677
Ne     0.428465     0.700812    -2.678324
Ne     0.426187    -0.402011    -2.678371
Ne    -0.620613    -0.747793    -2.678851
Ne    -1.287330     0.150452    -2.695892
Ne    -0.631342     1.055449    -2.695542
Ne     1.187184     1.248486    -2.095589
Ne     1.183973    -0.952374    -2.095474
Ne    -0.905933    -1.640296    -2.096724
Ne    -2.228675     0.146714    -2.117833
Ne    -0.920623     1.950680    -2.115173
Ne     1.199622     0.148532    -2.112172
Ne     0.142672    -1.309654    -2.112515
Ne    -1.574909    -0.755383    -2.118171
Ne    -1.592111     1.061673    -2.136020
Ne     0.138917     1.608993    -2.116453
Ne    -0.025968     1.045023     3.537160
Ne     0.625205     0.143631     3.534964
Ne    -0.028562    -0.756624     3.535621
Ne    -1.086677    -0.414390     3.537890
Ne    -1.085839     0.702865     3.539267
Ne     0.267078     1.945551     2.963939
Ne     1.568409     0.143602     2.959425
Ne     0.261454    -1.655642     2.960683
Ne    -1.853789    -0.973401     2.965864
Ne    -1.852284     1.263541     2.970992
Ne     0.927847     1.052259     2.977275
Ne     0.925323    -0.763626     2.975844
Ne    -0.800726    -1.326164     2.978817
Ne    -1.867604     0.144904     2.985018
Ne    -0.797153     1.616950     2.982542
Ne     0.558172     2.836388     2.375133
Ne     2.503015     0.143341     2.368718
Ne     0.549519    -2.545369     2.370400
Ne    -2.615483    -1.527539     2.378482
Ne    -2.617544     1.821729     2.394545
Ne     1.221090     1.951755     2.393620
Ne     1.868615    -0.763658     2.390289
Ne    -0.510989    -2.224002     2.393151
Ne    -2.637084    -0.414059     2.406816
Ne    -1.564703     2.177523     2.403562
Ne     1.870863     1.051934     2.391507
Ne     1.215936    -1.661986     2.390820
Ne    -1.568775    -1.883875     2.395446
Ne    -2.636668     0.705884     2.409755
Ne    -0.503806     2.516472     2.399292
Ne     1.502876     2.835730     1.788098
Ne     2.794571    -0.756541     1.783016
Ne    -0.217851    -3.102045     1.785394
Ne    -3.413663    -0.970742     1.815547
Ne    -2.321796     2.728910     1.806685
Ne     2.155384     1.944511     1.790598
Ne     2.150909    -1.655390     1.788197
Ne    -1.274465    -2.769181     1.791527
Ne    -3.422469     0.147833     1.828780
Ne    -1.264755     3.065563     1.802876
Ne     2.796458     1.044030     1.784017
Ne     1.495294    -2.545224     1.784012
Ne    -2.328922    -2.423869     1.789768
Ne    -3.411398     1.267916     1.821415
Ne    -0.207802     3.395550     1.793118
Ne     2.465195     2.169199    -0.097441
Ne     2.460054    -1.878955    -0.099179
Ne    -1.385797    -3.139648    -0.097587
Ne    -3.826425     0.135544    -0.101851
Ne    -1.382093     3.441919    -0.092309
Ne     1.993563     2.512986     0.848663
Ne     2.639995    -1.324089     0.845469
Ne    -0.804876    -3.134653     0.847705
Ne    -3.638919    -0.422313     0.861102
Ne    -1.858326     3.095919     0.860159
Ne     2.643248     1.613101     0.846723
Ne     1.987533    -2.222236     0.845934
Ne    -1.862484    -2.795340     0.849911
Ne    -3.640283     0.709688     0.866449
Ne    -0.796954     3.430804     0.854359
Ne     1.324575     3.393210     0.842317
Ne     0.267601     3.740947     0.842309
Ne     3.269025     0.699885     0.836670
Ne     3.267807    -0.412657     0.836488
Ne     1.315152    -3.101117     0.837907
Ne     0.257875    -3.447651     0.837856
Ne    -2.907106    -2.433590     0.843470
Ne    -3.599504    -1.546473     0.840357
Ne    -3.601797     1.838705     0.862370
Ne    -2.928243     2.752022     0.858512
Ne     1.799030     3.058574    -0.099982
Ne    -0.313142     3.756944    -0.100357
Ne     3.099940     1.256311    -0.103659
Ne     3.096988    -0.967888    -0.104176
Ne     1.790756    -2.766454    -0.103135
Ne    -0.321542    -3.460394    -0.103300
Ne    -2.436882    -2.782444    -0.100418
Ne    -3.793914    -1.000881    -0.112983
Ne    -3.802257     1.271209    -0.103390
Ne    -2.457907     3.110859    -0.092341
Ne     0.748398     3.426245    -0.105130
Ne     3.118184     0.144205    -0.108902
Ne     0.740290    -3.131876    -0.107987
Ne    -3.116833    -1.900427    -0.110755
Ne    -3.154752     2.207810    -0.105023
Ne     2.263509     2.708421    -1.041816
Ne    -0.896493     3.764443    -1.043931
Ne     2.914438     1.806848    -1.043531
Ne     2.909338    -1.517657    -1.044609
Ne     2.256076    -2.417308    -1.044138
Ne    -0.900123    -3.455474    -1.044527
Ne    -1.958277    -3.116211    -1.043477
Ne    -3.966621    -0.442635    -1.061564
Ne    -3.976613     0.692141    -1.066823
Ne    -1.975705     3.444074    -1.046568
Ne     1.219678     3.082253    -1.051142
Ne     2.939883     0.700005    -1.053303
Ne     1.212971    -2.788480    -1.053245
Ne    -2.638153    -2.240722    -1.056531
Ne    -3.344981     1.634029    -1.072363
Ne     0.163524     3.433142    -1.052908
Ne     2.938176    -0.410788    -1.053741
Ne     0.158426    -3.135427    -1.053304
Ne    -3.301419    -1.346936    -1.064292
Ne    -2.674430     2.556781    -1.065669
Ne     2.734300     1.250737    -1.990167
Ne     1.672409    -2.419726    -1.991118
Ne    -2.141296    -2.561856    -1.994759
Ne    -3.496488     1.040969    -2.027071
Ne    -0.421395     3.417306    -1.997769
Ne     2.739637     0.144903    -1.995805
Ne     0.624890    -2.772636    -1.996236
Ne    -2.805001    -1.676647    -2.005043
Ne    -2.840284     1.970116    -2.027336
Ne     0.630838     3.067618    -1.995275
Ne     2.730143    -0.961042    -1.991080
Ne    -0.426724    -3.111475    -1.991389
Ne    -3.465327    -0.785262    -2.011393
Ne    -2.162695     2.884263    -2.015838
Ne     1.678565     2.711313    -1.989576
Ne     0.448718     0.698690    -3.749882
Ne     0.441183    -0.411258    -3.750457
Ne    -0.609978    -0.764651    -3.750760
Ne    -1.287319     0.133416    -3.784012
Ne    -0.614394     1.063030    -3.782977
Ne     1.214202     1.255561    -3.170085
Ne     1.206172    -0.966870    -3.169726
Ne    -0.901177    -1.666711    -3.171791
Ne    -2.244648     0.124717    -3.211508
Ne    -0.904473     1.977243    -3.207204
Ne     1.222688     0.144158    -3.187395
Ne     0.156474    -1.328530    -3.187930
Ne    -1.574457    -0.779843    -3.195481
Ne    -1.592958     1.064148    -3.230808
Ne     0.162737     1.620086    -3.192803
Ne     1.970725     1.806909    -2.576932
Ne     1.963583    -1.517149    -2.577280
Ne    -1.190417    -2.558326    -2.579184
Ne    -3.188012     0.123053    -2.618776
Ne    -1.197171     2.876626    -2.607043
Ne     1.988359     0.700148    -2.599334
Ne     0.919114    -1.882199    -2.600045
Ne    -1.863888    -1.678192    -2.605047
Ne    -2.556066     1.058505    -2.642562
Ne    -0.129272     2.527582    -2.605036
Ne     1.985544    -0.410351    -2.599760
Ne    -0.134421    -2.230480    -2.600292
Ne    -2.527744    -0.784836    -2.611630
Ne    -1.887525     1.983127    -2.639064
Ne     0.925267     2.174006    -2.600726
Ne    -0.318435     0.143342     4.092341
Ne     0.845023     3.711596     1.777347
Ne     3.421673     0.142885     1.769275
Ne     0.834206    -3.420339     1.771611
Ne    -3.382940    -2.074197     1.784619
Ne    -3.373246     2.390984     1.824913
Ne     2.715597     2.347702    -1.975769
Ne     2.707572    -2.057616    -1.976732
Ne    -1.473796    -3.434615    -1.978042
Ne    -4.125832     0.100690    -2.019804
Ne    -1.465505     3.777023    -1.990576
Ne    -0.327122     0.145987    -4.327030
Ne     4.415000     0.141111     2.265292
Ne     3.512591    -2.641220    -2.470777
Ne    -0.018461     1.048450     4.632467
Ne     0.635656     0.141870     4.630072
Ne    -0.021179    -0.763872     4.630609
Ne    -1.083487    -0.419327     4.634830
Ne    -1.081834     0.703222     4.637007
Ne     0.277751     1.959023     4.056332
Ne     1.589970     0.141961     4.051256
Ne     0.272026    -1.673442     4.052460
Ne    -1.856370    -0.985459     4.061132
Ne    -1.853701     1.270226     4.066874
Ne     0.943595     1.057437     4.067493
Ne     0.940730    -0.772542     4.065902
Ne    -0.797000    -1.340470     4.069501
Ne    -1.867945     0.142534     4.079322
Ne    -0.793071     1.626088     4.074061
Ne     0.573060     2.864397     3.469106
Ne     2.538488     0.141862     3.461910
Ne     0.563962    -2.577584     3.463394
Ne    -2.624760    -1.549660     3.477221
Ne    -2.623284     1.835437     3.490394
Ne     1.242487     1.968501     3.489210
Ne     1.896061    -0.774486     3.485415
Ne    -0.505717    -2.251774     3.488997
Ne    -2.642148    -0.423144     3.508733
Ne    -1.565746     2.195655     3.501169
Ne     1.898854     1.059392     3.486804
Ne     1.236590    -1.682475     3.486022
Ne    -1.570900    -1.908718     3.492164
Ne    -2.640770     0.708162     3.512191
Ne    -0.498178     2.539033     3.496270
Ne     0.866642     3.762261     2.872103
Ne     3.478029     0.141591     2.864168
Ne     0.854423    -3.474461     2.864854
Ne    -3.391815    -2.107549     2.883754
Ne     1.534502     2.869365     2.891908
Ne     2.840332    -0.772430     2.886179
Ne    -0.213388    -3.149598     2.889509
Ne    -3.410592    -0.985369     2.922664
Ne    -2.336798     2.757758     2.911483
Ne     2.195144     1.968062     2.897112
Ne     2.189623    -1.682244     2.894402
Ne    -1.279326    -2.815273     2.899327
Ne    -3.416412     0.143039     2.939138
Ne    -1.269308     3.104417     2.912134
Ne     2.842869     1.056932     2.887374
Ne     1.525614    -2.582307     2.887249
Ne    -2.339023    -2.467062     2.896022
Ne    -3.410637     1.270704     2.931214
Ne    -0.201858     3.438693     2.898762
Ne     1.816109     3.762020     2.281204
Ne     3.771697    -0.765748     2.273679
Ne     0.084181    -4.034740     2.277210
Ne     2.477342     2.863170     2.285295
Ne     3.125655    -1.672817     2.280708
Ne    -0.980999    -3.701522     2.284903
Ne    -2.028984     3.657940     2.309386
Ne     3.130621     1.957937     2.283092
Ne     2.469282    -2.576548     2.281234
Ne    -2.043480    -3.360058     2.287154
Ne    -0.965226     3.994864     2.300611
Ne     3.773974     1.049450     2.274744
Ne     1.805129    -3.473833     2.275357
Ne    -3.102074    -3.013697     2.285489
Ne     0.099478     4.326085     2.287700
Ne     3.262769     2.742412    -0.570887
Ne     3.254974    -2.455254    -0.573583
Ne    -1.679223    -4.077068    -0.571480
Ne    -1.663580     4.389422    -0.554694
Ne     2.795591     3.096892     0.382981
Ne     3.446142    -1.901423     0.379010
Ne    -1.096069    -4.083148     0.382190
Ne    -2.143879     4.052743     0.406828
Ne     3.451711     2.187606     0.381062
Ne     2.786989    -2.809026     0.379455
Ne    -2.161394    -3.742224     0.383899
Ne    -1.076693     4.382465     0.396132
Ne     2.312941     3.434931     1.335019
Ne     3.617412    -1.337268     1.329427
Ne    -0.509123    -4.066935     1.332883
Ne    -2.621618     3.693374     1.361388
Ne     2.975247     2.534837     1.336895
Ne     2.968747    -2.248285     1.333935
Ne    -1.575564    -3.735407     1.339094
Ne    -1.557214     4.033349     1.357178
Ne     3.621078     1.622336     1.330942
Ne     2.303137    -3.146815     1.330327
Ne    -2.634796    -3.386915     1.337363
Ne    -0.492565     4.361232     1.344546
Ne     1.637674     4.322446     1.330029
Ne     0.576987     4.673013     1.332678
Ne     4.250245     0.702652     1.319707
Ne     4.248889    -0.419003     1.319290
Ne     1.624275    -4.032877     1.323897
Ne     0.561700    -4.381344     1.324955
Ne    -3.687161    -3.027287     1.327580
Ne     2.118319     3.987089     0.378569
Ne    -0.006098     4.691706     0.382344
Ne     4.083097     1.264093     0.372667
Ne     4.080072    -0.979230     0.371870
Ne     2.106121    -3.697432     0.373708
Ne    -0.023324    -4.397130     0.374612
Ne    -3.214143    -3.379959     0.376718
Ne     1.060103     4.355556     0.374824
Ne     4.099456     0.142413     0.367872
Ne     1.046457    -4.063823     0.369222
Ne    -3.898588    -2.499032     0.361178
Ne     2.592761     3.640973    -0.573716
Ne    -0.590071     4.703361    -0.568452
Ne     3.904184     1.823336    -0.577197
Ne     3.899135    -1.537260    -0.578010
Ne     2.581475    -3.351989    -0.577079
Ne    -0.608318    -4.401372    -0.576970
Ne    -2.738358    -3.721753    -0.576011
Ne     1.539839     4.019729    -0.579788
Ne     3.930994     0.703981    -0.584471
Ne     1.527540    -3.728017    -0.584092
Ne    -3.423549    -2.844084    -0.590227
Ne     0.476404     4.372740    -0.579309
Ne     3.929277    -0.418260    -0.585027
Ne     0.462276    -4.078507    -0.583875
Ne    -4.093975    -1.951242    -0.602987
Ne     3.059969     3.285057    -1.524427
Ne     3.713994     2.378416    -1.526641
Ne     3.706913    -2.090043    -1.525192
Ne     3.048248    -2.997494    -1.524836
Ne    -1.192712    -4.393450    -1.527957
Ne    -2.255934    -4.054288    -1.527348
Ne     2.009709     3.662416    -1.531534
Ne     3.740821     1.261845    -1.534312
Ne     1.998689    -3.371979    -1.535049
Ne    -2.938848    -3.175448    -1.539890
Ne     0.952326     4.025126    -1.535003
Ne     3.749230     0.143033    -1.539262
Ne     0.939946    -3.731446    -1.539124
Ne    -3.609508    -2.286769    -1.552297
Ne    -0.114213     4.372545    -1.533710
Ne     3.736902    -0.975768    -1.535503
Ne    -0.124795    -4.071461    -1.534904
Ne    -4.273004    -1.386701    -1.559696
Ne     3.533265     1.818629    -2.478340
Ne     2.460515    -2.999729    -2.479712
Ne    -2.438214    -3.500107    -2.484054
Ne     3.541091     0.701840    -2.485780
Ne     1.406604    -3.357791    -2.486598
Ne    -3.108017    -2.610823    -2.495908
Ne     0.364300     4.006022    -2.484804
Ne     3.538773    -0.415582    -2.486386
Ne     0.346330    -3.707621    -2.486604
Ne    -3.774120    -1.717791    -2.504550
Ne     1.421164     3.649536    -2.482887
Ne     3.526397    -1.529364    -2.479730
Ne    -0.716734    -4.047586    -2.480027
Ne     2.475362     3.287663    -2.477422
Ne     0.471348     0.699164    -4.842534
Ne     0.461495    -0.424578    -4.841720
Ne    -0.601450    -0.785400    -4.843839
Ne     1.243670     1.260866    -4.259606
Ne     1.229261    -0.982121    -4.258558
Ne    -0.894912    -1.694952    -4.261738
Ne     1.246623     0.138019    -4.275208
Ne     0.171781    -1.347838    -4.275779
Ne    -1.574528    -0.810518    -4.286925
Ne     0.192538     1.632409    -4.283569
Ne     2.008255     1.822310    -3.668120
Ne     1.995130    -1.538596    -3.668431
Ne    -1.190824    -2.597406    -3.671073
Ne     2.021438     0.701205    -3.692480
Ne     0.940656    -1.907324    -3.693282
Ne    -1.869099    -1.714721    -3.699105
Ne    -0.095879     2.555499    -3.701918
Ne     2.016884    -0.420522    -3.692920
Ne    -0.122622    -2.260982    -3.693640
Ne    -2.540891    -0.822873    -3.709133
Ne     0.959246     2.193369    -3.694040
Ne     2.767802     2.378779    -3.067794
Ne     2.754819    -2.090690    -3.070392
Ne    -1.483934    -3.493379    -3.071354
Ne     2.783693     1.261026    -3.091932
Ne     1.704024    -2.459077    -3.093095
Ne    -2.159852    -2.609473    -3.097878
Ne    -0.394358     3.462120    -3.101357
Ne     2.789076     0.141957    -3.100654
Ne     0.645662    -2.817666    -3.101255
Ne    -2.830440    -1.720748    -3.110422
Ne     0.665240     3.110081    -3.099838
Ne     2.777948    -0.976517    -3.092933
Ne    -0.418216    -3.160866    -3.093508
Ne    -3.495829    -0.822057    -3.114033
Ne     1.717514     2.747489    -3.091613
